REMARK VINA RESULT:    -5.754      1.809      2.805
REMARK INTER + INTRA:         -13.291
REMARK INTER:                 -12.033
REMARK INTRA:                  -1.259
REMARK UNBOUND:                -2.155
REMARK SMILES O=S(=O)([O-])C(F)(F)S(=O)(=O)OCCCCCCCC(F)(F)C(F)(F)C(F)(F)C(F)(F)C(F)(F)C(F)(F)F
REMARK SMILES IDX 16 1 15 2 14 3 13 4 12 5 11 6 8 7 9 8 10 9 5 10 6 11 7 12
REMARK SMILES IDX 2 13 1 14 3 15 4 16 17 17 18 18 19 19 20 20 21 21 22 22
REMARK SMILES IDX 23 23 24 24 25 25 26 26 27 27 28 28 29 29 30 30 31 31 32 32
REMARK SMILES IDX 33 33 34 34 35 35 36 36 37 37
REMARK H PARENT
ROOT
ATOM      1  C   UNL     1      -9.409  12.371 -18.601  1.00  0.00     0.000 C 
ENDROOT
BRANCH   1   2
ATOM      2  C   UNL     1      -8.709  11.401 -17.643  1.00  0.00     0.000 C 
BRANCH   2   3
ATOM      3  C   UNL     1      -9.203  11.412 -16.193  1.00  0.00     0.002 C 
BRANCH   3   4
ATOM      4  C   UNL     1      -8.972  12.709 -15.419  1.00  0.00     0.030 C 
BRANCH   4   5
ATOM      5  C   UNL     1     -10.206  13.223 -14.688  1.00  0.00     0.183 C 
BRANCH   5   6
ATOM      6  O   UNL     1      -9.921  14.537 -14.226  1.00  0.00    -0.265 OA
BRANCH   6   7
ATOM      7  S   UNL     1     -10.896  15.775 -14.711  1.00  0.00     0.348 S 
ATOM      8  O   UNL     1     -12.122  15.570 -13.953  1.00  0.00    -0.192 OA
ATOM      9  O   UNL     1     -10.922  15.693 -16.163  1.00  0.00    -0.192 OA
BRANCH   7  10
ATOM     10  C   UNL     1      -9.869  17.125 -14.029  1.00  0.00     0.459 C 
ATOM     11  F   UNL     1     -10.675  18.176 -13.627  1.00  0.00    -0.171 F 
ATOM     12  F   UNL     1      -9.255  16.719 -12.853  1.00  0.00    -0.171 F 
BRANCH  10  13
ATOM     13  S   UNL     1      -8.667  17.606 -15.289  1.00  0.00     0.179 S 
ATOM     14  O   UNL     1      -9.441  18.320 -16.308  1.00  0.00    -0.235 OA
ATOM     15  O   UNL     1      -8.124  16.334 -15.781  1.00  0.00    -0.235 OA
ATOM     16  O   UNL     1      -7.671  18.431 -14.606  1.00  0.00    -0.742 OA
ENDBRANCH  10  13
ENDBRANCH   7  10
ENDBRANCH   6   7
ENDBRANCH   5   6
ENDBRANCH   4   5
ENDBRANCH   3   4
ENDBRANCH   2   3
ENDBRANCH   1   2
BRANCH   1  17
ATOM     17  C   UNL     1      -8.484  12.936 -19.683  1.00  0.00     0.006 C 
BRANCH  17  18
ATOM     18  C   UNL     1      -7.080  13.269 -19.151  1.00  0.00     0.084 C 
BRANCH  18  19
ATOM     19  C   UNL     1      -5.968  12.490 -19.859  1.00  0.00     0.316 C 
ATOM     20  F   UNL     1      -6.397  11.215 -20.044  1.00  0.00    -0.200 F 
ATOM     21  F   UNL     1      -5.813  13.005 -21.114  1.00  0.00    -0.200 F 
BRANCH  19  22
ATOM     22  C   UNL     1      -4.597  12.514 -19.164  1.00  0.00     0.378 C 
ATOM     23  F   UNL     1      -4.079  13.774 -19.301  1.00  0.00    -0.193 F 
ATOM     24  F   UNL     1      -3.738  11.691 -19.831  1.00  0.00    -0.193 F 
BRANCH  22  25
ATOM     25  C   UNL     1      -4.584  12.141 -17.686  1.00  0.00     0.384 C 
ATOM     26  F   UNL     1      -5.332  11.012 -17.514  1.00  0.00    -0.192 F 
ATOM     27  F   UNL     1      -5.236  13.096 -16.959  1.00  0.00    -0.192 F 
BRANCH  25  28
ATOM     28  C   UNL     1      -3.199  11.942 -17.072  1.00  0.00     0.387 C 
ATOM     29  F   UNL     1      -2.343  12.933 -17.418  1.00  0.00    -0.192 F 
ATOM     30  F   UNL     1      -2.658  10.807 -17.638  1.00  0.00    -0.192 F 
BRANCH  28  31
ATOM     31  C   UNL     1      -3.161  11.720 -15.566  1.00  0.00     0.409 C 
ATOM     32  F   UNL     1      -2.819  10.410 -15.335  1.00  0.00    -0.189 F 
ATOM     33  F   UNL     1      -4.416  11.850 -15.042  1.00  0.00    -0.189 F 
BRANCH  31  34
ATOM     34  C   UNL     1      -2.192  12.613 -14.824  1.00  0.00     0.460 C 
ATOM     35  F   UNL     1      -2.725  13.838 -14.593  1.00  0.00    -0.165 F 
ATOM     36  F   UNL     1      -1.854  12.098 -13.621  1.00  0.00    -0.165 F 
ATOM     37  F   UNL     1      -1.053  12.814 -15.521  1.00  0.00    -0.165 F 
ENDBRANCH  31  34
ENDBRANCH  28  31
ENDBRANCH  25  28
ENDBRANCH  22  25
ENDBRANCH  19  22
ENDBRANCH  18  19
ENDBRANCH  17  18
ENDBRANCH   1  17
TORSDOF 16
