REMARK VINA RESULT:    -6.090      5.884      7.770
REMARK INTER + INTRA:         -13.942
REMARK INTER:                 -11.741
REMARK INTRA:                  -2.201
REMARK UNBOUND:                -2.155
REMARK SMILES O=S(=O)([O-])C(F)(F)S(=O)(=O)OCCCCCCCC(F)(F)C(F)(F)C(F)(F)C(F)(F)C(F)(F)C(F)(F)F
REMARK SMILES IDX 16 1 15 2 14 3 13 4 12 5 11 6 8 7 9 8 10 9 5 10 6 11 7 12
REMARK SMILES IDX 2 13 1 14 3 15 4 16 17 17 18 18 19 19 20 20 21 21 22 22
REMARK SMILES IDX 23 23 24 24 25 25 26 26 27 27 28 28 29 29 30 30 31 31 32 32
REMARK SMILES IDX 33 33 34 34 35 35 36 36 37 37
REMARK H PARENT
ROOT
ATOM      1  C   UNL     1      -9.762  12.014 -20.066  1.00  0.00     0.000 C 
ENDROOT
BRANCH   1   2
ATOM      2  C   UNL     1     -10.154  11.522 -21.463  1.00  0.00     0.000 C 
BRANCH   2   3
ATOM      3  C   UNL     1      -9.025  10.923 -22.308  1.00  0.00     0.002 C 
BRANCH   3   4
ATOM      4  C   UNL     1      -8.320   9.705 -21.714  1.00  0.00     0.030 C 
BRANCH   4   5
ATOM      5  C   UNL     1      -7.524   8.893 -22.728  1.00  0.00     0.183 C 
BRANCH   5   6
ATOM      6  O   UNL     1      -6.233   9.480 -22.838  1.00  0.00    -0.265 OA
BRANCH   6   7
ATOM      7  S   UNL     1      -5.468   9.439 -24.297  1.00  0.00     0.348 S 
ATOM      8  O   UNL     1      -6.241  10.356 -25.122  1.00  0.00    -0.192 OA
ATOM      9  O   UNL     1      -5.398   8.030 -24.652  1.00  0.00    -0.192 OA
BRANCH   7  10
ATOM     10  C   UNL     1      -3.894  10.172 -23.723  1.00  0.00     0.459 C 
ATOM     11  F   UNL     1      -4.130  11.032 -22.663  1.00  0.00    -0.171 F 
ATOM     12  F   UNL     1      -3.077   9.195 -23.173  1.00  0.00    -0.171 F 
BRANCH  10  13
ATOM     13  S   UNL     1      -3.114  10.994 -25.130  1.00  0.00     0.179 S 
ATOM     14  O   UNL     1      -3.403  10.140 -26.285  1.00  0.00    -0.235 OA
ATOM     15  O   UNL     1      -1.685  11.022 -24.791  1.00  0.00    -0.235 OA
ATOM     16  O   UNL     1      -3.713  12.326 -25.205  1.00  0.00    -0.742 OA
ENDBRANCH  10  13
ENDBRANCH   7  10
ENDBRANCH   6   7
ENDBRANCH   5   6
ENDBRANCH   4   5
ENDBRANCH   3   4
ENDBRANCH   2   3
ENDBRANCH   1   2
BRANCH   1  17
ATOM     17  C   UNL     1      -8.649  13.066 -20.080  1.00  0.00     0.006 C 
BRANCH  17  18
ATOM     18  C   UNL     1      -7.564  12.799 -19.024  1.00  0.00     0.084 C 
BRANCH  18  19
ATOM     19  C   UNL     1      -6.321  12.114 -19.598  1.00  0.00     0.316 C 
ATOM     20  F   UNL     1      -6.472  10.773 -19.455  1.00  0.00    -0.200 F 
ATOM     21  F   UNL     1      -6.294  12.332 -20.947  1.00  0.00    -0.200 F 
BRANCH  19  22
ATOM     22  C   UNL     1      -4.978  12.582 -19.016  1.00  0.00     0.378 C 
ATOM     23  F   UNL     1      -5.242  13.333 -17.901  1.00  0.00    -0.193 F 
ATOM     24  F   UNL     1      -4.377  13.434 -19.895  1.00  0.00    -0.193 F 
BRANCH  22  25
ATOM     25  C   UNL     1      -3.987  11.486 -18.641  1.00  0.00     0.384 C 
ATOM     26  F   UNL     1      -3.464  10.959 -19.786  1.00  0.00    -0.192 F 
ATOM     27  F   UNL     1      -4.648  10.443 -18.057  1.00  0.00    -0.192 F 
BRANCH  25  28
ATOM     28  C   UNL     1      -2.858  11.914 -17.705  1.00  0.00     0.387 C 
ATOM     29  F   UNL     1      -2.472  13.193 -17.928  1.00  0.00    -0.192 F 
ATOM     30  F   UNL     1      -1.750  11.159 -18.028  1.00  0.00    -0.192 F 
BRANCH  28  31
ATOM     31  C   UNL     1      -3.099  11.691 -16.219  1.00  0.00     0.409 C 
ATOM     32  F   UNL     1      -2.844  10.371 -15.937  1.00  0.00    -0.189 F 
ATOM     33  F   UNL     1      -4.424  11.860 -15.929  1.00  0.00    -0.189 F 
BRANCH  31  34
ATOM     34  C   UNL     1      -2.254  12.554 -15.309  1.00  0.00     0.460 C 
ATOM     35  F   UNL     1      -1.108  12.943 -15.919  1.00  0.00    -0.165 F 
ATOM     36  F   UNL     1      -2.903  13.679 -14.937  1.00  0.00    -0.165 F 
ATOM     37  F   UNL     1      -1.888  11.899 -14.185  1.00  0.00    -0.165 F 
ENDBRANCH  31  34
ENDBRANCH  28  31
ENDBRANCH  25  28
ENDBRANCH  22  25
ENDBRANCH  19  22
ENDBRANCH  18  19
ENDBRANCH  17  18
ENDBRANCH   1  17
TORSDOF 16
