REMARK VINA RESULT:    -6.859      1.159      1.870
REMARK INTER + INTRA:         -15.430
REMARK INTER:                 -13.350
REMARK INTRA:                  -2.080
REMARK UNBOUND:                -2.155
REMARK SMILES O=S(=O)([O-])C(F)(F)S(=O)(=O)OCCCCCCCC(F)(F)C(F)(F)C(F)(F)C(F)(F)C(F)(F)C(F)(F)F
REMARK SMILES IDX 16 1 15 2 14 3 13 4 12 5 11 6 8 7 9 8 10 9 5 10 6 11 7 12
REMARK SMILES IDX 2 13 1 14 3 15 4 16 17 17 18 18 19 19 20 20 21 21 22 22
REMARK SMILES IDX 23 23 24 24 25 25 26 26 27 27 28 28 29 29 30 30 31 31 32 32
REMARK SMILES IDX 33 33 34 34 35 35 36 36 37 37
REMARK H PARENT
ROOT
ATOM      1  C   UNL     1      -7.240  10.082 -18.284  1.00  0.00     0.000 C 
ENDROOT
BRANCH   1   2
ATOM      2  C   UNL     1      -8.300  10.799 -17.441  1.00  0.00     0.000 C 
BRANCH   2   3
ATOM      3  C   UNL     1      -7.943  11.036 -15.970  1.00  0.00     0.002 C 
BRANCH   3   4
ATOM      4  C   UNL     1      -7.442  12.437 -15.622  1.00  0.00     0.030 C 
BRANCH   4   5
ATOM      5  C   UNL     1      -8.186  13.558 -16.336  1.00  0.00     0.183 C 
BRANCH   5   6
ATOM      6  O   UNL     1      -8.487  14.561 -15.373  1.00  0.00    -0.265 OA
BRANCH   6   7
ATOM      7  S   UNL     1     -10.066  14.938 -15.091  1.00  0.00     0.348 S 
ATOM      8  O   UNL     1     -10.802  13.867 -15.748  1.00  0.00    -0.192 OA
ATOM      9  O   UNL     1     -10.220  16.309 -15.551  1.00  0.00    -0.192 OA
BRANCH   7  10
ATOM     10  C   UNL     1     -10.005  14.731 -13.275  1.00  0.00     0.459 C 
ATOM     11  F   UNL     1      -9.032  13.807 -12.936  1.00  0.00    -0.171 F 
ATOM     12  F   UNL     1      -9.567  15.900 -12.670  1.00  0.00    -0.171 F 
BRANCH  10  13
ATOM     13  S   UNL     1     -11.653  14.252 -12.710  1.00  0.00     0.179 S 
ATOM     14  O   UNL     1     -12.577  15.146 -13.413  1.00  0.00    -0.235 OA
ATOM     15  O   UNL     1     -11.627  14.491 -11.262  1.00  0.00    -0.235 OA
ATOM     16  O   UNL     1     -11.806  12.839 -13.057  1.00  0.00    -0.742 OA
ENDBRANCH  10  13
ENDBRANCH   7  10
ENDBRANCH   6   7
ENDBRANCH   5   6
ENDBRANCH   4   5
ENDBRANCH   3   4
ENDBRANCH   2   3
ENDBRANCH   1   2
BRANCH   1  17
ATOM     17  C   UNL     1      -6.704  10.930 -19.441  1.00  0.00     0.006 C 
BRANCH  17  18
ATOM     18  C   UNL     1      -5.822  12.096 -18.965  1.00  0.00     0.084 C 
BRANCH  18  19
ATOM     19  C   UNL     1      -4.324  11.824 -19.131  1.00  0.00     0.316 C 
ATOM     20  F   UNL     1      -4.163  10.963 -20.169  1.00  0.00    -0.200 F 
ATOM     21  F   UNL     1      -3.718  12.982 -19.526  1.00  0.00    -0.200 F 
BRANCH  19  22
ATOM     22  C   UNL     1      -3.600  11.314 -17.875  1.00  0.00     0.378 C 
ATOM     23  F   UNL     1      -2.477  10.644 -18.280  1.00  0.00    -0.193 F 
ATOM     24  F   UNL     1      -4.377  10.382 -17.254  1.00  0.00    -0.193 F 
BRANCH  22  25
ATOM     25  C   UNL     1      -3.194  12.371 -16.855  1.00  0.00     0.384 C 
ATOM     26  F   UNL     1      -4.173  13.321 -16.797  1.00  0.00    -0.192 F 
ATOM     27  F   UNL     1      -2.091  13.045 -17.298  1.00  0.00    -0.192 F 
BRANCH  25  28
ATOM     28  C   UNL     1      -2.897  11.849 -15.451  1.00  0.00     0.387 C 
ATOM     29  F   UNL     1      -2.421  10.581 -15.471  1.00  0.00    -0.192 F 
ATOM     30  F   UNL     1      -4.101  11.754 -14.785  1.00  0.00    -0.192 F 
BRANCH  28  31
ATOM     31  C   UNL     1      -2.006  12.728 -14.584  1.00  0.00     0.409 C 
ATOM     32  F   UNL     1      -2.534  13.997 -14.576  1.00  0.00    -0.189 F 
ATOM     33  F   UNL     1      -0.777  12.867 -15.166  1.00  0.00    -0.189 F 
BRANCH  31  34
ATOM     34  C   UNL     1      -1.855  12.256 -13.156  1.00  0.00     0.460 C 
ATOM     35  F   UNL     1      -0.608  12.500 -12.683  1.00  0.00    -0.165 F 
ATOM     36  F   UNL     1      -2.720  12.881 -12.326  1.00  0.00    -0.165 F 
ATOM     37  F   UNL     1      -2.059  10.926 -13.037  1.00  0.00    -0.165 F 
ENDBRANCH  31  34
ENDBRANCH  28  31
ENDBRANCH  25  28
ENDBRANCH  22  25
ENDBRANCH  19  22
ENDBRANCH  18  19
ENDBRANCH  17  18
ENDBRANCH   1  17
TORSDOF 16
