REMARK VINA RESULT:    -5.885      1.721      3.604
REMARK INTER + INTRA:         -13.545
REMARK INTER:                 -11.422
REMARK INTRA:                  -2.124
REMARK UNBOUND:                -2.155
REMARK SMILES O=S(=O)([O-])C(F)(F)S(=O)(=O)OCCCCCCCC(F)(F)C(F)(F)C(F)(F)C(F)(F)C(F)(F)C(F)(F)F
REMARK SMILES IDX 16 1 15 2 14 3 13 4 12 5 11 6 8 7 9 8 10 9 5 10 6 11 7 12
REMARK SMILES IDX 2 13 1 14 3 15 4 16 17 17 18 18 19 19 20 20 21 21 22 22
REMARK SMILES IDX 23 23 24 24 25 25 26 26 27 27 28 28 29 29 30 30 31 31 32 32
REMARK SMILES IDX 33 33 34 34 35 35 36 36 37 37
REMARK H PARENT
ROOT
ATOM      1  C   UNL     1     -10.391  10.359 -16.457  1.00  0.00     0.000 C 
ENDROOT
BRANCH   1   2
ATOM      2  C   UNL     1     -11.473  11.141 -15.706  1.00  0.00     0.000 C 
BRANCH   2   3
ATOM      3  C   UNL     1     -11.254  11.317 -14.199  1.00  0.00     0.002 C 
BRANCH   3   4
ATOM      4  C   UNL     1     -12.489  11.702 -13.385  1.00  0.00     0.030 C 
BRANCH   4   5
ATOM      5  C   UNL     1     -12.408  13.084 -12.751  1.00  0.00     0.183 C 
BRANCH   5   6
ATOM      6  O   UNL     1     -12.212  14.030 -13.795  1.00  0.00    -0.265 OA
BRANCH   6   7
ATOM      7  S   UNL     1     -11.215  15.314 -13.522  1.00  0.00     0.348 S 
ATOM      8  O   UNL     1     -10.679  15.062 -12.192  1.00  0.00    -0.192 OA
ATOM      9  O   UNL     1     -12.036  16.492 -13.759  1.00  0.00    -0.192 OA
BRANCH   7  10
ATOM     10  C   UNL     1     -10.014  14.928 -14.845  1.00  0.00     0.459 C 
ATOM     11  F   UNL     1      -9.108  13.979 -14.401  1.00  0.00    -0.171 F 
ATOM     12  F   UNL     1     -10.649  14.298 -15.906  1.00  0.00    -0.171 F 
BRANCH  10  13
ATOM     13  S   UNL     1      -9.221  16.471 -15.350  1.00  0.00     0.179 S 
ATOM     14  O   UNL     1     -10.151  17.090 -16.298  1.00  0.00    -0.235 OA
ATOM     15  O   UNL     1      -7.967  16.046 -15.984  1.00  0.00    -0.235 OA
ATOM     16  O   UNL     1      -9.014  17.240 -14.124  1.00  0.00    -0.742 OA
ENDBRANCH  10  13
ENDBRANCH   7  10
ENDBRANCH   6   7
ENDBRANCH   5   6
ENDBRANCH   4   5
ENDBRANCH   3   4
ENDBRANCH   2   3
ENDBRANCH   1   2
BRANCH   1  17
ATOM     17  C   UNL     1      -9.947  11.030 -17.761  1.00  0.00     0.006 C 
BRANCH  17  18
ATOM     18  C   UNL     1      -8.764  11.992 -17.563  1.00  0.00     0.084 C 
BRANCH  18  19
ATOM     19  C   UNL     1      -7.402  11.301 -17.670  1.00  0.00     0.316 C 
ATOM     20  F   UNL     1      -6.772  11.420 -16.473  1.00  0.00    -0.200 F 
ATOM     21  F   UNL     1      -7.611   9.962 -17.837  1.00  0.00    -0.200 F 
BRANCH  19  22
ATOM     22  C   UNL     1      -6.502  11.787 -18.817  1.00  0.00     0.378 C 
ATOM     23  F   UNL     1      -6.599  13.151 -18.880  1.00  0.00    -0.193 F 
ATOM     24  F   UNL     1      -6.997  11.331 -20.003  1.00  0.00    -0.193 F 
BRANCH  22  25
ATOM     25  C   UNL     1      -5.028  11.408 -18.724  1.00  0.00     0.384 C 
ATOM     26  F   UNL     1      -4.565  11.140 -19.980  1.00  0.00    -0.192 F 
ATOM     27  F   UNL     1      -4.894  10.226 -18.053  1.00  0.00    -0.192 F 
BRANCH  25  28
ATOM     28  C   UNL     1      -4.126  12.440 -18.050  1.00  0.00     0.387 C 
ATOM     29  F   UNL     1      -4.816  13.241 -17.203  1.00  0.00    -0.192 F 
ATOM     30  F   UNL     1      -3.670  13.291 -19.034  1.00  0.00    -0.192 F 
BRANCH  28  31
ATOM     31  C   UNL     1      -2.885  11.893 -17.358  1.00  0.00     0.409 C 
ATOM     32  F   UNL     1      -1.884  12.827 -17.475  1.00  0.00    -0.189 F 
ATOM     33  F   UNL     1      -2.419  10.798 -18.029  1.00  0.00    -0.189 F 
BRANCH  31  34
ATOM     34  C   UNL     1      -3.074  11.565 -15.895  1.00  0.00     0.460 C 
ATOM     35  F   UNL     1      -2.694  10.293 -15.619  1.00  0.00    -0.165 F 
ATOM     36  F   UNL     1      -2.344  12.376 -15.099  1.00  0.00    -0.165 F 
ATOM     37  F   UNL     1      -4.366  11.670 -15.515  1.00  0.00    -0.165 F 
ENDBRANCH  31  34
ENDBRANCH  28  31
ENDBRANCH  25  28
ENDBRANCH  22  25
ENDBRANCH  19  22
ENDBRANCH  18  19
ENDBRANCH  17  18
ENDBRANCH   1  17
TORSDOF 16
