REMARK VINA RESULT:    -5.884      5.205      7.298
REMARK INTER + INTRA:         -13.543
REMARK INTER:                 -11.919
REMARK INTRA:                  -1.624
REMARK UNBOUND:                -2.155
REMARK SMILES O=S(=O)([O-])C(F)(F)S(=O)(=O)OCCCCCCCC(F)(F)C(F)(F)C(F)(F)C(F)(F)C(F)(F)C(F)(F)F
REMARK SMILES IDX 16 1 15 2 14 3 13 4 12 5 11 6 8 7 9 8 10 9 5 10 6 11 7 12
REMARK SMILES IDX 2 13 1 14 3 15 4 16 17 17 18 18 19 19 20 20 21 21 22 22
REMARK SMILES IDX 23 23 24 24 25 25 26 26 27 27 28 28 29 29 30 30 31 31 32 32
REMARK SMILES IDX 33 33 34 34 35 35 36 36 37 37
REMARK H PARENT
ROOT
ATOM      1  C   UNL     1      -4.109  11.387 -23.893  1.00  0.00     0.000 C 
ENDROOT
BRANCH   1   2
ATOM      2  C   UNL     1      -3.625  10.131 -24.625  1.00  0.00     0.000 C 
BRANCH   2   3
ATOM      3  C   UNL     1      -3.802   8.805 -23.878  1.00  0.00     0.002 C 
BRANCH   3   4
ATOM      4  C   UNL     1      -4.732   7.787 -24.536  1.00  0.00     0.030 C 
BRANCH   4   5
ATOM      5  C   UNL     1      -5.729   8.397 -25.512  1.00  0.00     0.183 C 
BRANCH   5   6
ATOM      6  O   UNL     1      -6.634   9.199 -24.764  1.00  0.00    -0.265 OA
BRANCH   6   7
ATOM      7  S   UNL     1      -8.209   8.726 -24.660  1.00  0.00     0.348 S 
ATOM      8  O   UNL     1      -8.201   7.368 -25.185  1.00  0.00    -0.192 OA
ATOM      9  O   UNL     1      -8.966   9.762 -25.345  1.00  0.00    -0.192 OA
BRANCH   7  10
ATOM     10  C   UNL     1      -8.315   8.768 -22.835  1.00  0.00     0.459 C 
ATOM     11  F   UNL     1      -8.933   7.619 -22.370  1.00  0.00    -0.171 F 
ATOM     12  F   UNL     1      -7.047   8.704 -22.275  1.00  0.00    -0.171 F 
BRANCH  10  13
ATOM     13  S   UNL     1      -9.191  10.275 -22.359  1.00  0.00     0.179 S 
ATOM     14  O   UNL     1     -10.538  10.130 -22.913  1.00  0.00    -0.235 OA
ATOM     15  O   UNL     1      -8.430  11.357 -22.998  1.00  0.00    -0.235 OA
ATOM     16  O   UNL     1      -9.146  10.327 -20.898  1.00  0.00    -0.742 OA
ENDBRANCH  10  13
ENDBRANCH   7  10
ENDBRANCH   6   7
ENDBRANCH   5   6
ENDBRANCH   4   5
ENDBRANCH   3   4
ENDBRANCH   2   3
ENDBRANCH   1   2
BRANCH   1  17
ATOM     17  C   UNL     1      -4.734  11.094 -22.526  1.00  0.00     0.006 C 
BRANCH  17  18
ATOM     18  C   UNL     1      -5.313  12.351 -21.855  1.00  0.00     0.084 C 
BRANCH  18  19
ATOM     19  C   UNL     1      -5.826  12.092 -20.435  1.00  0.00     0.316 C 
ATOM     20  F   UNL     1      -7.050  12.666 -20.316  1.00  0.00    -0.200 F 
ATOM     21  F   UNL     1      -6.040  10.751 -20.292  1.00  0.00    -0.200 F 
BRANCH  19  22
ATOM     22  C   UNL     1      -4.892  12.547 -19.301  1.00  0.00     0.378 C 
ATOM     23  F   UNL     1      -5.671  13.021 -18.280  1.00  0.00    -0.193 F 
ATOM     24  F   UNL     1      -4.155  13.613 -19.724  1.00  0.00    -0.193 F 
BRANCH  22  25
ATOM     25  C   UNL     1      -3.947  11.490 -18.742  1.00  0.00     0.384 C 
ATOM     26  F   UNL     1      -3.345  10.846 -19.784  1.00  0.00    -0.192 F 
ATOM     27  F   UNL     1      -4.664  10.515 -18.108  1.00  0.00    -0.192 F 
BRANCH  25  28
ATOM     28  C   UNL     1      -2.887  12.005 -17.770  1.00  0.00     0.387 C 
ATOM     29  F   UNL     1      -2.586  13.307 -17.992  1.00  0.00    -0.192 F 
ATOM     30  F   UNL     1      -1.717  11.330 -18.044  1.00  0.00    -0.192 F 
BRANCH  28  31
ATOM     31  C   UNL     1      -3.168  11.777 -16.291  1.00  0.00     0.409 C 
ATOM     32  F   UNL     1      -3.018  10.437 -16.029  1.00  0.00    -0.189 F 
ATOM     33  F   UNL     1      -4.480  12.042 -16.018  1.00  0.00    -0.189 F 
BRANCH  31  34
ATOM     34  C   UNL     1      -2.274  12.558 -15.355  1.00  0.00     0.460 C 
ATOM     35  F   UNL     1      -1.139  12.963 -15.976  1.00  0.00    -0.165 F 
ATOM     36  F   UNL     1      -2.884  13.669 -14.886  1.00  0.00    -0.165 F 
ATOM     37  F   UNL     1      -1.888  11.821 -14.291  1.00  0.00    -0.165 F 
ENDBRANCH  31  34
ENDBRANCH  28  31
ENDBRANCH  25  28
ENDBRANCH  22  25
ENDBRANCH  19  22
ENDBRANCH  18  19
ENDBRANCH  17  18
ENDBRANCH   1  17
TORSDOF 16
