REMARK VINA RESULT:    -6.444      1.265      2.040
REMARK INTER + INTRA:         -14.626
REMARK INTER:                 -13.437
REMARK INTRA:                  -1.189
REMARK UNBOUND:                -2.155
REMARK SMILES O=S(=O)([O-])C(F)(F)S(=O)(=O)OCCCCCCCC(F)(F)C(F)(F)C(F)(F)C(F)(F)C(F)(F)C(F)(F)F
REMARK SMILES IDX 16 1 15 2 14 3 13 4 12 5 11 6 8 7 9 8 10 9 5 10 6 11 7 12
REMARK SMILES IDX 2 13 1 14 3 15 4 16 17 17 18 18 19 19 20 20 21 21 22 22
REMARK SMILES IDX 23 23 24 24 25 25 26 26 27 27 28 28 29 29 30 30 31 31 32 32
REMARK SMILES IDX 33 33 34 34 35 35 36 36 37 37
REMARK H PARENT
ROOT
ATOM      1  C   UNL     1      -7.715  11.834 -15.764  1.00  0.00     0.000 C 
ENDROOT
BRANCH   1   2
ATOM      2  C   UNL     1      -8.735  10.716 -16.003  1.00  0.00     0.000 C 
BRANCH   2   3
ATOM      3  C   UNL     1      -9.940  10.690 -15.057  1.00  0.00     0.002 C 
BRANCH   3   4
ATOM      4  C   UNL     1     -10.918  11.857 -15.189  1.00  0.00     0.030 C 
BRANCH   4   5
ATOM      5  C   UNL     1     -11.880  11.995 -14.017  1.00  0.00     0.183 C 
BRANCH   5   6
ATOM      6  O   UNL     1     -11.204  12.694 -12.979  1.00  0.00    -0.265 OA
BRANCH   6   7
ATOM      7  S   UNL     1     -11.658  14.242 -12.642  1.00  0.00     0.348 S 
ATOM      8  O   UNL     1     -11.913  14.225 -11.208  1.00  0.00    -0.192 OA
ATOM      9  O   UNL     1     -12.744  14.531 -13.565  1.00  0.00    -0.192 OA
BRANCH   7  10
ATOM     10  C   UNL     1     -10.058  15.021 -13.058  1.00  0.00     0.459 C 
ATOM     11  F   UNL     1      -9.513  15.615 -11.932  1.00  0.00    -0.171 F 
ATOM     12  F   UNL     1      -9.123  14.054 -13.399  1.00  0.00    -0.171 F 
BRANCH  10  13
ATOM     13  S   UNL     1     -10.339  16.195 -14.402  1.00  0.00     0.179 S 
ATOM     14  O   UNL     1     -10.704  15.376 -15.560  1.00  0.00    -0.235 OA
ATOM     15  O   UNL     1      -9.047  16.872 -14.573  1.00  0.00    -0.235 OA
ATOM     16  O   UNL     1     -11.400  17.091 -13.943  1.00  0.00    -0.742 OA
ENDBRANCH  10  13
ENDBRANCH   7  10
ENDBRANCH   6   7
ENDBRANCH   5   6
ENDBRANCH   4   5
ENDBRANCH   3   4
ENDBRANCH   2   3
ENDBRANCH   1   2
BRANCH   1  17
ATOM     17  C   UNL     1      -7.691  12.887 -16.877  1.00  0.00     0.006 C 
BRANCH  17  18
ATOM     18  C   UNL     1      -6.866  12.445 -18.097  1.00  0.00     0.084 C 
BRANCH  18  19
ATOM     19  C   UNL     1      -5.390  12.842 -18.001  1.00  0.00     0.316 C 
ATOM     20  F   UNL     1      -5.111  13.685 -19.028  1.00  0.00    -0.200 F 
ATOM     21  F   UNL     1      -5.217  13.584 -16.867  1.00  0.00    -0.200 F 
BRANCH  19  22
ATOM     22  C   UNL     1      -4.392  11.674 -17.961  1.00  0.00     0.378 C 
ATOM     23  F   UNL     1      -4.127  11.303 -19.251  1.00  0.00    -0.193 F 
ATOM     24  F   UNL     1      -4.987  10.591 -17.383  1.00  0.00    -0.193 F 
BRANCH  22  25
ATOM     25  C   UNL     1      -3.070  11.942 -17.251  1.00  0.00     0.384 C 
ATOM     26  F   UNL     1      -2.703  13.236 -17.483  1.00  0.00    -0.192 F 
ATOM     27  F   UNL     1      -2.076  11.199 -17.823  1.00  0.00    -0.192 F 
BRANCH  25  28
ATOM     28  C   UNL     1      -3.063  11.664 -15.748  1.00  0.00     0.387 C 
ATOM     29  F   UNL     1      -2.788  10.367 -15.474  1.00  0.00    -0.192 F 
ATOM     30  F   UNL     1      -4.351  11.847 -15.292  1.00  0.00    -0.192 F 
BRANCH  28  31
ATOM     31  C   UNL     1      -2.184  12.576 -14.903  1.00  0.00     0.409 C 
ATOM     32  F   UNL     1      -2.874  13.742 -14.672  1.00  0.00    -0.189 F 
ATOM     33  F   UNL     1      -1.083  12.958 -15.616  1.00  0.00    -0.189 F 
BRANCH  31  34
ATOM     34  C   UNL     1      -1.765  11.989 -13.574  1.00  0.00     0.460 C 
ATOM     35  F   UNL     1      -2.226  10.722 -13.425  1.00  0.00    -0.165 F 
ATOM     36  F   UNL     1      -0.420  11.936 -13.450  1.00  0.00    -0.165 F 
ATOM     37  F   UNL     1      -2.247  12.699 -12.532  1.00  0.00    -0.165 F 
ENDBRANCH  31  34
ENDBRANCH  28  31
ENDBRANCH  25  28
ENDBRANCH  22  25
ENDBRANCH  19  22
ENDBRANCH  18  19
ENDBRANCH  17  18
ENDBRANCH   1  17
TORSDOF 16
