REMARK VINA RESULT:    -5.996      1.888      3.245
REMARK INTER + INTRA:         -13.760
REMARK INTER:                 -12.055
REMARK INTRA:                  -1.706
REMARK UNBOUND:                -2.155
REMARK SMILES O=S(=O)([O-])C(F)(F)S(=O)(=O)OCCCCCCCC(F)(F)C(F)(F)C(F)(F)C(F)(F)C(F)(F)C(F)(F)F
REMARK SMILES IDX 16 1 15 2 14 3 13 4 12 5 11 6 8 7 9 8 10 9 5 10 6 11 7 12
REMARK SMILES IDX 2 13 1 14 3 15 4 16 17 17 18 18 19 19 20 20 21 21 22 22
REMARK SMILES IDX 23 23 24 24 25 25 26 26 27 27 28 28 29 29 30 30 31 31 32 32
REMARK SMILES IDX 33 33 34 34 35 35 36 36 37 37
REMARK H PARENT
ROOT
ATOM      1  C   UNL     1      -6.722  14.653 -20.237  1.00  0.00     0.000 C 
ENDROOT
BRANCH   1   2
ATOM      2  C   UNL     1      -8.004  15.056 -19.502  1.00  0.00     0.000 C 
BRANCH   2   3
ATOM      3  C   UNL     1      -7.981  16.421 -18.806  1.00  0.00     0.002 C 
BRANCH   3   4
ATOM      4  C   UNL     1      -8.937  16.585 -17.625  1.00  0.00     0.030 C 
BRANCH   4   5
ATOM      5  C   UNL     1      -9.625  15.295 -17.200  1.00  0.00     0.183 C 
BRANCH   5   6
ATOM      6  O   UNL     1      -8.880  14.739 -16.124  1.00  0.00    -0.265 OA
BRANCH   6   7
ATOM      7  S   UNL     1      -9.547  13.511 -15.251  1.00  0.00     0.348 S 
ATOM      8  O   UNL     1     -10.928  13.468 -15.709  1.00  0.00    -0.192 OA
ATOM      9  O   UNL     1      -9.256  13.827 -13.861  1.00  0.00    -0.192 OA
BRANCH   7  10
ATOM     10  C   UNL     1      -8.530  12.172 -15.970  1.00  0.00     0.459 C 
ATOM     11  F   UNL     1      -8.053  12.555 -17.212  1.00  0.00    -0.171 F 
ATOM     12  F   UNL     1      -7.376  11.986 -15.222  1.00  0.00    -0.171 F 
BRANCH  10  13
ATOM     13  S   UNL     1      -9.541  10.676 -16.038  1.00  0.00     0.179 S 
ATOM     14  O   UNL     1      -8.591   9.577 -16.225  1.00  0.00    -0.235 OA
ATOM     15  O   UNL     1     -10.411  10.876 -17.205  1.00  0.00    -0.235 OA
ATOM     16  O   UNL     1     -10.276  10.625 -14.775  1.00  0.00    -0.742 OA
ENDBRANCH  10  13
ENDBRANCH   7  10
ENDBRANCH   6   7
ENDBRANCH   5   6
ENDBRANCH   4   5
ENDBRANCH   3   4
ENDBRANCH   2   3
ENDBRANCH   1   2
BRANCH   1  17
ATOM     17  C   UNL     1      -6.381  13.166 -20.101  1.00  0.00     0.006 C 
BRANCH  17  18
ATOM     18  C   UNL     1      -4.922  12.926 -19.682  1.00  0.00     0.084 C 
BRANCH  18  19
ATOM     19  C   UNL     1      -4.609  11.452 -19.408  1.00  0.00     0.316 C 
ATOM     20  F   UNL     1      -5.627  10.704 -19.906  1.00  0.00    -0.200 F 
ATOM     21  F   UNL     1      -3.511  11.102 -20.142  1.00  0.00    -0.200 F 
BRANCH  19  22
ATOM     22  C   UNL     1      -4.331  11.096 -17.939  1.00  0.00     0.378 C 
ATOM     23  F   UNL     1      -3.827   9.823 -17.903  1.00  0.00    -0.193 F 
ATOM     24  F   UNL     1      -5.511  11.040 -17.258  1.00  0.00    -0.193 F 
BRANCH  22  25
ATOM     25  C   UNL     1      -3.377  12.019 -17.191  1.00  0.00     0.384 C 
ATOM     26  F   UNL     1      -3.836  13.300 -17.293  1.00  0.00    -0.192 F 
ATOM     27  F   UNL     1      -2.164  12.041 -17.818  1.00  0.00    -0.192 F 
BRANCH  25  28
ATOM     28  C   UNL     1      -3.143  11.670 -15.722  1.00  0.00     0.387 C 
ATOM     29  F   UNL     1      -2.723  10.391 -15.565  1.00  0.00    -0.192 F 
ATOM     30  F   UNL     1      -4.368  11.710 -15.090  1.00  0.00    -0.192 F 
BRANCH  28  31
ATOM     31  C   UNL     1      -2.238  12.616 -14.945  1.00  0.00     0.409 C 
ATOM     32  F   UNL     1      -2.932  13.780 -14.716  1.00  0.00    -0.189 F 
ATOM     33  F   UNL     1      -1.176  12.990 -15.720  1.00  0.00    -0.189 F 
BRANCH  31  34
ATOM     34  C   UNL     1      -1.750  12.074 -13.621  1.00  0.00     0.460 C 
ATOM     35  F   UNL     1      -2.057  12.911 -12.599  1.00  0.00    -0.165 F 
ATOM     36  F   UNL     1      -2.308  10.878 -13.331  1.00  0.00    -0.165 F 
ATOM     37  F   UNL     1      -0.408  11.918 -13.600  1.00  0.00    -0.165 F 
ENDBRANCH  31  34
ENDBRANCH  28  31
ENDBRANCH  25  28
ENDBRANCH  22  25
ENDBRANCH  19  22
ENDBRANCH  18  19
ENDBRANCH  17  18
ENDBRANCH   1  17
TORSDOF 16
