REMARK VINA RESULT:    -7.066      0.000      0.000
REMARK INTER + INTRA:         -15.831
REMARK INTER:                 -13.675
REMARK INTRA:                  -2.155
REMARK UNBOUND:                -2.155
REMARK SMILES O=S(=O)([O-])C(F)(F)S(=O)(=O)OCCCCCCCC(F)(F)C(F)(F)C(F)(F)C(F)(F)C(F)(F)C(F)(F)F
REMARK SMILES IDX 16 1 15 2 14 3 13 4 12 5 11 6 8 7 9 8 10 9 5 10 6 11 7 12
REMARK SMILES IDX 2 13 1 14 3 15 4 16 17 17 18 18 19 19 20 20 21 21 22 22
REMARK SMILES IDX 23 23 24 24 25 25 26 26 27 27 28 28 29 29 30 30 31 31 32 32
REMARK SMILES IDX 33 33 34 34 35 35 36 36 37 37
REMARK H PARENT
ROOT
ATOM      1  C   UNL     1      -7.321  12.945 -18.420  1.00  0.00     0.000 C 
ENDROOT
BRANCH   1   2
ATOM      2  C   UNL     1      -7.710  11.600 -17.799  1.00  0.00     0.000 C 
BRANCH   2   3
ATOM      3  C   UNL     1      -7.528  11.480 -16.282  1.00  0.00     0.002 C 
BRANCH   3   4
ATOM      4  C   UNL     1      -8.639  10.744 -15.533  1.00  0.00     0.030 C 
BRANCH   4   5
ATOM      5  C   UNL     1     -10.042  11.229 -15.871  1.00  0.00     0.183 C 
BRANCH   5   6
ATOM      6  O   UNL     1     -10.603  11.793 -14.692  1.00  0.00    -0.265 OA
BRANCH   6   7
ATOM      7  S   UNL     1     -11.152  13.346 -14.743  1.00  0.00     0.348 S 
ATOM      8  O   UNL     1     -12.520  13.249 -14.252  1.00  0.00    -0.192 OA
ATOM      9  O   UNL     1     -10.903  13.796 -16.104  1.00  0.00    -0.192 OA
BRANCH   7  10
ATOM     10  C   UNL     1     -10.004  14.011 -13.484  1.00  0.00     0.459 C 
ATOM     11  F   UNL     1     -10.277  13.447 -12.249  1.00  0.00    -0.171 F 
ATOM     12  F   UNL     1      -8.706  13.601 -13.749  1.00  0.00    -0.171 F 
BRANCH  10  13
ATOM     13  S   UNL     1     -10.158  15.811 -13.481  1.00  0.00     0.179 S 
ATOM     14  O   UNL     1      -9.648  16.240 -12.177  1.00  0.00    -0.235 OA
ATOM     15  O   UNL     1     -11.598  16.055 -13.633  1.00  0.00    -0.235 OA
ATOM     16  O   UNL     1      -9.372  16.288 -14.618  1.00  0.00    -0.742 OA
ENDBRANCH  10  13
ENDBRANCH   7  10
ENDBRANCH   6   7
ENDBRANCH   5   6
ENDBRANCH   4   5
ENDBRANCH   3   4
ENDBRANCH   2   3
ENDBRANCH   1   2
BRANCH   1  17
ATOM     17  C   UNL     1      -6.423  12.812 -19.653  1.00  0.00     0.006 C 
BRANCH  17  18
ATOM     18  C   UNL     1      -5.683  11.466 -19.708  1.00  0.00     0.084 C 
BRANCH  18  19
ATOM     19  C   UNL     1      -4.181  11.594 -19.439  1.00  0.00     0.316 C 
ATOM     20  F   UNL     1      -3.517  10.939 -20.425  1.00  0.00    -0.200 F 
ATOM     21  F   UNL     1      -3.829  12.906 -19.576  1.00  0.00    -0.200 F 
BRANCH  19  22
ATOM     22  C   UNL     1      -3.714  11.120 -18.053  1.00  0.00     0.378 C 
ATOM     23  F   UNL     1      -2.618  10.320 -18.229  1.00  0.00    -0.193 F 
ATOM     24  F   UNL     1      -4.670  10.315 -17.506  1.00  0.00    -0.193 F 
BRANCH  22  25
ATOM     25  C   UNL     1      -3.363  12.213 -17.050  1.00  0.00     0.384 C 
ATOM     26  F   UNL     1      -4.376  13.128 -17.028  1.00  0.00    -0.192 F 
ATOM     27  F   UNL     1      -2.279  12.917 -17.491  1.00  0.00    -0.192 F 
BRANCH  25  28
ATOM     28  C   UNL     1      -3.070  11.732 -15.630  1.00  0.00     0.387 C 
ATOM     29  F   UNL     1      -2.653  10.444 -15.607  1.00  0.00    -0.192 F 
ATOM     30  F   UNL     1      -4.267  11.719 -14.946  1.00  0.00    -0.192 F 
BRANCH  28  31
ATOM     31  C   UNL     1      -2.126  12.602 -14.811  1.00  0.00     0.409 C 
ATOM     32  F   UNL     1      -2.682  13.854 -14.704  1.00  0.00    -0.189 F 
ATOM     33  F   UNL     1      -0.958  12.796 -15.492  1.00  0.00    -0.189 F 
BRANCH  31  34
ATOM     34  C   UNL     1      -1.837  12.080 -13.422  1.00  0.00     0.460 C 
ATOM     35  F   UNL     1      -2.190  10.776 -13.300  1.00  0.00    -0.165 F 
ATOM     36  F   UNL     1      -0.523  12.162 -13.117  1.00  0.00    -0.165 F 
ATOM     37  F   UNL     1      -2.523  12.754 -12.474  1.00  0.00    -0.165 F 
ENDBRANCH  31  34
ENDBRANCH  28  31
ENDBRANCH  25  28
ENDBRANCH  22  25
ENDBRANCH  19  22
ENDBRANCH  18  19
ENDBRANCH  17  18
ENDBRANCH   1  17
TORSDOF 16
