REMARK VINA RESULT:    -6.190      1.458      2.765
REMARK INTER + INTRA:         -14.136
REMARK INTER:                 -12.112
REMARK INTRA:                  -2.023
REMARK UNBOUND:                -2.155
REMARK SMILES O=S(=O)([O-])C(F)(F)S(=O)(=O)OCCCCCCCC(F)(F)C(F)(F)C(F)(F)C(F)(F)C(F)(F)C(F)(F)F
REMARK SMILES IDX 16 1 15 2 14 3 13 4 12 5 11 6 8 7 9 8 10 9 5 10 6 11 7 12
REMARK SMILES IDX 2 13 1 14 3 15 4 16 17 17 18 18 19 19 20 20 21 21 22 22
REMARK SMILES IDX 23 23 24 24 25 25 26 26 27 27 28 28 29 29 30 30 31 31 32 32
REMARK SMILES IDX 33 33 34 34 35 35 36 36 37 37
REMARK H PARENT
ROOT
ATOM      1  C   UNL     1      -9.341  11.159 -18.629  1.00  0.00     0.000 C 
ENDROOT
BRANCH   1   2
ATOM      2  C   UNL     1      -8.184  10.970 -17.643  1.00  0.00     0.000 C 
BRANCH   2   3
ATOM      3  C   UNL     1      -8.576  10.710 -16.185  1.00  0.00     0.002 C 
BRANCH   3   4
ATOM      4  C   UNL     1      -9.891   9.963 -15.971  1.00  0.00     0.030 C 
BRANCH   4   5
ATOM      5  C   UNL     1     -10.985  10.804 -15.326  1.00  0.00     0.183 C 
BRANCH   5   6
ATOM      6  O   UNL     1     -10.356  11.872 -14.627  1.00  0.00    -0.265 OA
BRANCH   6   7
ATOM      7  S   UNL     1     -11.237  13.224 -14.290  1.00  0.00     0.348 S 
ATOM      8  O   UNL     1     -11.996  12.858 -13.102  1.00  0.00    -0.192 OA
ATOM      9  O   UNL     1     -11.936  13.541 -15.525  1.00  0.00    -0.192 OA
BRANCH   7  10
ATOM     10  C   UNL     1      -9.814  14.305 -13.905  1.00  0.00     0.459 C 
ATOM     11  F   UNL     1      -9.281  13.965 -12.673  1.00  0.00    -0.171 F 
ATOM     12  F   UNL     1      -8.771  14.065 -14.788  1.00  0.00    -0.171 F 
BRANCH  10  13
ATOM     13  S   UNL     1     -10.379  16.020 -13.974  1.00  0.00     0.179 S 
ATOM     14  O   UNL     1      -9.447  16.767 -13.127  1.00  0.00    -0.235 OA
ATOM     15  O   UNL     1     -11.738  15.979 -13.420  1.00  0.00    -0.235 OA
ATOM     16  O   UNL     1     -10.345  16.402 -15.385  1.00  0.00    -0.742 OA
ENDBRANCH  10  13
ENDBRANCH   7  10
ENDBRANCH   6   7
ENDBRANCH   5   6
ENDBRANCH   4   5
ENDBRANCH   3   4
ENDBRANCH   2   3
ENDBRANCH   1   2
BRANCH   1  17
ATOM     17  C   UNL     1      -8.902  11.149 -20.096  1.00  0.00     0.006 C 
BRANCH  17  18
ATOM     18  C   UNL     1      -7.505  10.539 -20.295  1.00  0.00     0.084 C 
BRANCH  18  19
ATOM     19  C   UNL     1      -6.549  11.461 -21.057  1.00  0.00     0.316 C 
ATOM     20  F   UNL     1      -5.799  10.697 -21.892  1.00  0.00    -0.200 F 
ATOM     21  F   UNL     1      -7.289  12.268 -21.874  1.00  0.00    -0.200 F 
BRANCH  19  22
ATOM     22  C   UNL     1      -5.659  12.360 -20.184  1.00  0.00     0.378 C 
ATOM     23  F   UNL     1      -6.474  13.070 -19.344  1.00  0.00    -0.193 F 
ATOM     24  F   UNL     1      -5.047  13.291 -20.971  1.00  0.00    -0.193 F 
BRANCH  22  25
ATOM     25  C   UNL     1      -4.598  11.651 -19.350  1.00  0.00     0.384 C 
ATOM     26  F   UNL     1      -3.663  11.120 -20.190  1.00  0.00    -0.192 F 
ATOM     27  F   UNL     1      -5.147  10.568 -18.723  1.00  0.00    -0.192 F 
BRANCH  25  28
ATOM     28  C   UNL     1      -3.912  12.513 -18.291  1.00  0.00     0.387 C 
ATOM     29  F   UNL     1      -4.801  13.248 -17.581  1.00  0.00    -0.192 F 
ATOM     30  F   UNL     1      -3.146  13.447 -18.955  1.00  0.00    -0.192 F 
BRANCH  28  31
ATOM     31  C   UNL     1      -2.964  11.785 -17.348  1.00  0.00     0.409 C 
ATOM     32  F   UNL     1      -1.814  12.530 -17.237  1.00  0.00    -0.189 F 
ATOM     33  F   UNL     1      -2.561  10.605 -17.908  1.00  0.00    -0.189 F 
BRANCH  31  34
ATOM     34  C   UNL     1      -3.519  11.541 -15.963  1.00  0.00     0.460 C 
ATOM     35  F   UNL     1      -4.865  11.380 -15.991  1.00  0.00    -0.165 F 
ATOM     36  F   UNL     1      -3.001  10.426 -15.403  1.00  0.00    -0.165 F 
ATOM     37  F   UNL     1      -3.272  12.574 -15.129  1.00  0.00    -0.165 F 
ENDBRANCH  31  34
ENDBRANCH  28  31
ENDBRANCH  25  28
ENDBRANCH  22  25
ENDBRANCH  19  22
ENDBRANCH  18  19
ENDBRANCH  17  18
ENDBRANCH   1  17
TORSDOF 16
