
     RDKit          3D

 51 50  0  0  0  0  0  0  0  0999 V2000
    4.7502   -1.8469    0.3986 C   0  0  0  0  0  0  0  0  0  0  0  0
    5.4129   -2.6898   -1.0551 S   0  0  0  0  0  0  0  0  0  0  0  0
    5.2976   -1.7215   -2.1484 O   0  0  0  0  0  0  0  0  0  0  0  0
    4.5346   -3.8534   -1.2346 O   0  0  0  0  0  0  0  0  0  0  0  0
    6.7891   -3.0555   -0.7197 O   0  0  0  0  0  0  0  0  0  0  0  0
    4.4834   -2.7129    1.4455 F   0  0  0  0  0  0  0  0  0  0  0  0
    3.5199   -1.2582    0.1430 F   0  0  0  0  0  0  0  0  0  0  0  0
    5.9641   -0.5848    0.9248 S   0  0  0  0  0  0  0  0  0  0  0  0
    6.9663   -1.1224    1.8346 O   0  0  0  0  0  0  0  0  0  0  0  0
    6.3580    0.3597   -0.1081 O   0  0  0  0  0  0  0  0  0  0  0  0
    4.9441    0.2529    1.9123 O   0  0  0  0  0  0  0  0  0  0  0  0
    4.2263    1.3557    1.3729 C   0  0  0  0  0  0  0  0  0  0  0  0
    2.9885    1.5719    2.2351 C   0  0  0  0  0  0  0  0  0  0  0  0
    2.1438    2.7765    1.8214 C   0  0  0  0  0  0  0  0  0  0  0  0
    1.6181    2.7619    0.3823 C   0  0  0  0  0  0  0  0  0  0  0  0
    0.8317    1.5151   -0.0356 C   0  0  0  0  0  0  0  0  0  0  0  0
   -0.3946    1.2436    0.8403 C   0  0  0  0  0  0  0  0  0  0  0  0
   -1.2379    0.0625    0.3338 C   0  0  0  0  0  0  0  0  0  0  0  0
   -2.2831    0.4712   -0.7077 C   0  0  0  0  0  0  0  0  0  0  0  0
   -3.1544    1.3302   -0.1191 F   0  0  0  0  0  0  0  0  0  0  0  0
   -1.6590    1.1996   -1.6796 F   0  0  0  0  0  0  0  0  0  0  0  0
   -3.0282   -0.6877   -1.3894 C   0  0  0  0  0  0  0  0  0  0  0  0
   -2.0941   -1.5136   -1.9535 F   0  0  0  0  0  0  0  0  0  0  0  0
   -3.7627   -0.2024   -2.4300 F   0  0  0  0  0  0  0  0  0  0  0  0
   -3.9377   -1.5217   -0.4950 C   0  0  0  0  0  0  0  0  0  0  0  0
   -3.2681   -1.8183    0.6573 F   0  0  0  0  0  0  0  0  0  0  0  0
   -4.1723   -2.7375   -1.0737 F   0  0  0  0  0  0  0  0  0  0  0  0
   -5.2881   -0.8899   -0.1603 C   0  0  0  0  0  0  0  0  0  0  0  0
   -5.2396    0.4632   -0.2052 F   0  0  0  0  0  0  0  0  0  0  0  0
   -5.5615   -1.1813    1.1599 F   0  0  0  0  0  0  0  0  0  0  0  0
   -6.4806   -1.3978   -0.9580 C   0  0  0  0  0  0  0  0  0  0  0  0
   -7.6147   -0.8049   -0.4569 F   0  0  0  0  0  0  0  0  0  0  0  0
   -6.6585   -2.7342   -0.7351 F   0  0  0  0  0  0  0  0  0  0  0  0
   -6.4057   -1.1243   -2.4433 C   0  0  0  0  0  0  0  0  0  0  0  0
   -7.5381   -1.5183   -3.0768 F   0  0  0  0  0  0  0  0  0  0  0  0
   -6.2463    0.1921   -2.7045 F   0  0  0  0  0  0  0  0  0  0  0  0
   -5.3857   -1.7867   -3.0298 F   0  0  0  0  0  0  0  0  0  0  0  0
    3.9365    1.1537    0.3372 H   0  0  0  0  0  0  0  0  0  0  0  0
    4.8725    2.2394    1.3943 H   0  0  0  0  0  0  0  0  0  0  0  0
    2.3818    0.6584    2.2337 H   0  0  0  0  0  0  0  0  0  0  0  0
    3.3017    1.7023    3.2791 H   0  0  0  0  0  0  0  0  0  0  0  0
    1.2978    2.8628    2.5140 H   0  0  0  0  0  0  0  0  0  0  0  0
    2.7379    3.6887    1.9595 H   0  0  0  0  0  0  0  0  0  0  0  0
    0.9799    3.6438    0.2429 H   0  0  0  0  0  0  0  0  0  0  0  0
    2.4590    2.8900   -0.3101 H   0  0  0  0  0  0  0  0  0  0  0  0
    0.5244    1.6509   -1.0780 H   0  0  0  0  0  0  0  0  0  0  0  0
    1.4895    0.6384   -0.0250 H   0  0  0  0  0  0  0  0  0  0  0  0
   -0.0542    0.9990    1.8533 H   0  0  0  0  0  0  0  0  0  0  0  0
   -1.0123    2.1453    0.9238 H   0  0  0  0  0  0  0  0  0  0  0  0
   -0.5808   -0.7186   -0.0641 H   0  0  0  0  0  0  0  0  0  0  0  0
   -1.7514   -0.3464    1.2094 H   0  0  0  0  0  0  0  0  0  0  0  0
  1  2  1  0
  2  3  2  0
  2  4  2  0
  2  5  1  0
  1  6  1  0
  1  7  1  0
  1  8  1  0
  8  9  2  0
  8 10  2  0
  8 11  1  0
 11 12  1  0
 12 13  1  0
 13 14  1  0
 14 15  1  0
 15 16  1  0
 16 17  1  0
 17 18  1  0
 18 19  1  0
 19 20  1  0
 19 21  1  0
 19 22  1  0
 22 23  1  0
 22 24  1  0
 22 25  1  0
 25 26  1  0
 25 27  1  0
 25 28  1  0
 28 29  1  0
 28 30  1  0
 28 31  1  0
 31 32  1  0
 31 33  1  0
 31 34  1  0
 34 35  1  0
 34 36  1  0
 34 37  1  0
 12 38  1  0
 12 39  1  0
 13 40  1  0
 13 41  1  0
 14 42  1  0
 14 43  1  0
 15 44  1  0
 15 45  1  0
 16 46  1  0
 16 47  1  0
 17 48  1  0
 17 49  1  0
 18 50  1  0
 18 51  1  0
M  CHG  1   5  -1
M  END
>  <ScrubInfo>  (1) 
{"isomerGroup": 0, "isomerId": 0, "confId": 0, "nr_conformers:": 1, "nr_isomers:": 1}

$$$$
