MODEL 1
REMARK VINA RESULT:    -7.066      0.000      0.000
REMARK INTER + INTRA:         -15.831
REMARK INTER:                 -13.675
REMARK INTRA:                  -2.155
REMARK UNBOUND:                -2.155
REMARK SMILES O=S(=O)([O-])C(F)(F)S(=O)(=O)OCCCCCCCC(F)(F)C(F)(F)C(F)(F)C(F)(F)C(F)(F)C(F)(F)F
REMARK SMILES IDX 16 1 15 2 14 3 13 4 12 5 11 6 8 7 9 8 10 9 5 10 6 11 7 12
REMARK SMILES IDX 2 13 1 14 3 15 4 16 17 17 18 18 19 19 20 20 21 21 22 22
REMARK SMILES IDX 23 23 24 24 25 25 26 26 27 27 28 28 29 29 30 30 31 31 32 32
REMARK SMILES IDX 33 33 34 34 35 35 36 36 37 37
REMARK H PARENT
ROOT
ATOM      1  C   UNL     1      -7.321  12.945 -18.420  1.00  0.00     0.000 C 
ENDROOT
BRANCH   1   2
ATOM      2  C   UNL     1      -7.710  11.600 -17.799  1.00  0.00     0.000 C 
BRANCH   2   3
ATOM      3  C   UNL     1      -7.528  11.480 -16.282  1.00  0.00     0.002 C 
BRANCH   3   4
ATOM      4  C   UNL     1      -8.639  10.744 -15.533  1.00  0.00     0.030 C 
BRANCH   4   5
ATOM      5  C   UNL     1     -10.042  11.229 -15.871  1.00  0.00     0.183 C 
BRANCH   5   6
ATOM      6  O   UNL     1     -10.603  11.793 -14.692  1.00  0.00    -0.265 OA
BRANCH   6   7
ATOM      7  S   UNL     1     -11.152  13.346 -14.743  1.00  0.00     0.348 S 
ATOM      8  O   UNL     1     -12.520  13.249 -14.252  1.00  0.00    -0.192 OA
ATOM      9  O   UNL     1     -10.903  13.796 -16.104  1.00  0.00    -0.192 OA
BRANCH   7  10
ATOM     10  C   UNL     1     -10.004  14.011 -13.484  1.00  0.00     0.459 C 
ATOM     11  F   UNL     1     -10.277  13.447 -12.249  1.00  0.00    -0.171 F 
ATOM     12  F   UNL     1      -8.706  13.601 -13.749  1.00  0.00    -0.171 F 
BRANCH  10  13
ATOM     13  S   UNL     1     -10.158  15.811 -13.481  1.00  0.00     0.179 S 
ATOM     14  O   UNL     1      -9.648  16.240 -12.177  1.00  0.00    -0.235 OA
ATOM     15  O   UNL     1     -11.598  16.055 -13.633  1.00  0.00    -0.235 OA
ATOM     16  O   UNL     1      -9.372  16.288 -14.618  1.00  0.00    -0.742 OA
ENDBRANCH  10  13
ENDBRANCH   7  10
ENDBRANCH   6   7
ENDBRANCH   5   6
ENDBRANCH   4   5
ENDBRANCH   3   4
ENDBRANCH   2   3
ENDBRANCH   1   2
BRANCH   1  17
ATOM     17  C   UNL     1      -6.423  12.812 -19.653  1.00  0.00     0.006 C 
BRANCH  17  18
ATOM     18  C   UNL     1      -5.683  11.466 -19.708  1.00  0.00     0.084 C 
BRANCH  18  19
ATOM     19  C   UNL     1      -4.181  11.594 -19.439  1.00  0.00     0.316 C 
ATOM     20  F   UNL     1      -3.517  10.939 -20.425  1.00  0.00    -0.200 F 
ATOM     21  F   UNL     1      -3.829  12.906 -19.576  1.00  0.00    -0.200 F 
BRANCH  19  22
ATOM     22  C   UNL     1      -3.714  11.120 -18.053  1.00  0.00     0.378 C 
ATOM     23  F   UNL     1      -2.618  10.320 -18.229  1.00  0.00    -0.193 F 
ATOM     24  F   UNL     1      -4.670  10.315 -17.506  1.00  0.00    -0.193 F 
BRANCH  22  25
ATOM     25  C   UNL     1      -3.363  12.213 -17.050  1.00  0.00     0.384 C 
ATOM     26  F   UNL     1      -4.376  13.128 -17.028  1.00  0.00    -0.192 F 
ATOM     27  F   UNL     1      -2.279  12.917 -17.491  1.00  0.00    -0.192 F 
BRANCH  25  28
ATOM     28  C   UNL     1      -3.070  11.732 -15.630  1.00  0.00     0.387 C 
ATOM     29  F   UNL     1      -2.653  10.444 -15.607  1.00  0.00    -0.192 F 
ATOM     30  F   UNL     1      -4.267  11.719 -14.946  1.00  0.00    -0.192 F 
BRANCH  28  31
ATOM     31  C   UNL     1      -2.126  12.602 -14.811  1.00  0.00     0.409 C 
ATOM     32  F   UNL     1      -2.682  13.854 -14.704  1.00  0.00    -0.189 F 
ATOM     33  F   UNL     1      -0.958  12.796 -15.492  1.00  0.00    -0.189 F 
BRANCH  31  34
ATOM     34  C   UNL     1      -1.837  12.080 -13.422  1.00  0.00     0.460 C 
ATOM     35  F   UNL     1      -2.190  10.776 -13.300  1.00  0.00    -0.165 F 
ATOM     36  F   UNL     1      -0.523  12.162 -13.117  1.00  0.00    -0.165 F 
ATOM     37  F   UNL     1      -2.523  12.754 -12.474  1.00  0.00    -0.165 F 
ENDBRANCH  31  34
ENDBRANCH  28  31
ENDBRANCH  25  28
ENDBRANCH  22  25
ENDBRANCH  19  22
ENDBRANCH  18  19
ENDBRANCH  17  18
ENDBRANCH   1  17
TORSDOF 16
ENDMDL
MODEL 2
REMARK VINA RESULT:    -6.859      1.159      1.870
REMARK INTER + INTRA:         -15.430
REMARK INTER:                 -13.350
REMARK INTRA:                  -2.080
REMARK UNBOUND:                -2.155
REMARK SMILES O=S(=O)([O-])C(F)(F)S(=O)(=O)OCCCCCCCC(F)(F)C(F)(F)C(F)(F)C(F)(F)C(F)(F)C(F)(F)F
REMARK SMILES IDX 16 1 15 2 14 3 13 4 12 5 11 6 8 7 9 8 10 9 5 10 6 11 7 12
REMARK SMILES IDX 2 13 1 14 3 15 4 16 17 17 18 18 19 19 20 20 21 21 22 22
REMARK SMILES IDX 23 23 24 24 25 25 26 26 27 27 28 28 29 29 30 30 31 31 32 32
REMARK SMILES IDX 33 33 34 34 35 35 36 36 37 37
REMARK H PARENT
ROOT
ATOM      1  C   UNL     1      -7.240  10.082 -18.284  1.00  0.00     0.000 C 
ENDROOT
BRANCH   1   2
ATOM      2  C   UNL     1      -8.300  10.799 -17.441  1.00  0.00     0.000 C 
BRANCH   2   3
ATOM      3  C   UNL     1      -7.943  11.036 -15.970  1.00  0.00     0.002 C 
BRANCH   3   4
ATOM      4  C   UNL     1      -7.442  12.437 -15.622  1.00  0.00     0.030 C 
BRANCH   4   5
ATOM      5  C   UNL     1      -8.186  13.558 -16.336  1.00  0.00     0.183 C 
BRANCH   5   6
ATOM      6  O   UNL     1      -8.487  14.561 -15.373  1.00  0.00    -0.265 OA
BRANCH   6   7
ATOM      7  S   UNL     1     -10.066  14.938 -15.091  1.00  0.00     0.348 S 
ATOM      8  O   UNL     1     -10.802  13.867 -15.748  1.00  0.00    -0.192 OA
ATOM      9  O   UNL     1     -10.220  16.309 -15.551  1.00  0.00    -0.192 OA
BRANCH   7  10
ATOM     10  C   UNL     1     -10.005  14.731 -13.275  1.00  0.00     0.459 C 
ATOM     11  F   UNL     1      -9.032  13.807 -12.936  1.00  0.00    -0.171 F 
ATOM     12  F   UNL     1      -9.567  15.900 -12.670  1.00  0.00    -0.171 F 
BRANCH  10  13
ATOM     13  S   UNL     1     -11.653  14.252 -12.710  1.00  0.00     0.179 S 
ATOM     14  O   UNL     1     -12.577  15.146 -13.413  1.00  0.00    -0.235 OA
ATOM     15  O   UNL     1     -11.627  14.491 -11.262  1.00  0.00    -0.235 OA
ATOM     16  O   UNL     1     -11.806  12.839 -13.057  1.00  0.00    -0.742 OA
ENDBRANCH  10  13
ENDBRANCH   7  10
ENDBRANCH   6   7
ENDBRANCH   5   6
ENDBRANCH   4   5
ENDBRANCH   3   4
ENDBRANCH   2   3
ENDBRANCH   1   2
BRANCH   1  17
ATOM     17  C   UNL     1      -6.704  10.930 -19.441  1.00  0.00     0.006 C 
BRANCH  17  18
ATOM     18  C   UNL     1      -5.822  12.096 -18.965  1.00  0.00     0.084 C 
BRANCH  18  19
ATOM     19  C   UNL     1      -4.324  11.824 -19.131  1.00  0.00     0.316 C 
ATOM     20  F   UNL     1      -4.163  10.963 -20.169  1.00  0.00    -0.200 F 
ATOM     21  F   UNL     1      -3.718  12.982 -19.526  1.00  0.00    -0.200 F 
BRANCH  19  22
ATOM     22  C   UNL     1      -3.600  11.314 -17.875  1.00  0.00     0.378 C 
ATOM     23  F   UNL     1      -2.477  10.644 -18.280  1.00  0.00    -0.193 F 
ATOM     24  F   UNL     1      -4.377  10.382 -17.254  1.00  0.00    -0.193 F 
BRANCH  22  25
ATOM     25  C   UNL     1      -3.194  12.371 -16.855  1.00  0.00     0.384 C 
ATOM     26  F   UNL     1      -4.173  13.321 -16.797  1.00  0.00    -0.192 F 
ATOM     27  F   UNL     1      -2.091  13.045 -17.298  1.00  0.00    -0.192 F 
BRANCH  25  28
ATOM     28  C   UNL     1      -2.897  11.849 -15.451  1.00  0.00     0.387 C 
ATOM     29  F   UNL     1      -2.421  10.581 -15.471  1.00  0.00    -0.192 F 
ATOM     30  F   UNL     1      -4.101  11.754 -14.785  1.00  0.00    -0.192 F 
BRANCH  28  31
ATOM     31  C   UNL     1      -2.006  12.728 -14.584  1.00  0.00     0.409 C 
ATOM     32  F   UNL     1      -2.534  13.997 -14.576  1.00  0.00    -0.189 F 
ATOM     33  F   UNL     1      -0.777  12.867 -15.166  1.00  0.00    -0.189 F 
BRANCH  31  34
ATOM     34  C   UNL     1      -1.855  12.256 -13.156  1.00  0.00     0.460 C 
ATOM     35  F   UNL     1      -0.608  12.500 -12.683  1.00  0.00    -0.165 F 
ATOM     36  F   UNL     1      -2.720  12.881 -12.326  1.00  0.00    -0.165 F 
ATOM     37  F   UNL     1      -2.059  10.926 -13.037  1.00  0.00    -0.165 F 
ENDBRANCH  31  34
ENDBRANCH  28  31
ENDBRANCH  25  28
ENDBRANCH  22  25
ENDBRANCH  19  22
ENDBRANCH  18  19
ENDBRANCH  17  18
ENDBRANCH   1  17
TORSDOF 16
ENDMDL
MODEL 3
REMARK VINA RESULT:    -6.718      6.106      7.705
REMARK INTER + INTRA:         -15.156
REMARK INTER:                 -12.941
REMARK INTRA:                  -2.215
REMARK UNBOUND:                -2.155
REMARK SMILES O=S(=O)([O-])C(F)(F)S(=O)(=O)OCCCCCCCC(F)(F)C(F)(F)C(F)(F)C(F)(F)C(F)(F)C(F)(F)F
REMARK SMILES IDX 16 1 15 2 14 3 13 4 12 5 11 6 8 7 9 8 10 9 5 10 6 11 7 12
REMARK SMILES IDX 2 13 1 14 3 15 4 16 17 17 18 18 19 19 20 20 21 21 22 22
REMARK SMILES IDX 23 23 24 24 25 25 26 26 27 27 28 28 29 29 30 30 31 31 32 32
REMARK SMILES IDX 33 33 34 34 35 35 36 36 37 37
REMARK H PARENT
ROOT
ATOM      1  C   UNL     1      -6.708  13.375 -21.206  1.00  0.00     0.000 C 
ENDROOT
BRANCH   1   2
ATOM      2  C   UNL     1      -6.340  14.860 -21.288  1.00  0.00     0.000 C 
BRANCH   2   3
ATOM      3  C   UNL     1      -6.467  15.510 -22.670  1.00  0.00     0.002 C 
BRANCH   3   4
ATOM      4  C   UNL     1      -5.182  15.583 -23.494  1.00  0.00     0.030 C 
BRANCH   4   5
ATOM      5  C   UNL     1      -5.289  14.935 -24.869  1.00  0.00     0.183 C 
BRANCH   5   6
ATOM      6  O   UNL     1      -5.894  13.659 -24.702  1.00  0.00    -0.265 OA
BRANCH   6   7
ATOM      7  S   UNL     1      -5.245  12.367 -25.493  1.00  0.00     0.348 S 
ATOM      8  O   UNL     1      -4.161  12.946 -26.274  1.00  0.00    -0.192 OA
ATOM      9  O   UNL     1      -6.365  11.732 -26.170  1.00  0.00    -0.192 OA
BRANCH   7  10
ATOM     10  C   UNL     1      -4.645  11.494 -24.003  1.00  0.00     0.459 C 
ATOM     11  F   UNL     1      -4.200  12.410 -23.065  1.00  0.00    -0.171 F 
ATOM     12  F   UNL     1      -5.695  10.855 -23.361  1.00  0.00    -0.171 F 
BRANCH  10  13
ATOM     13  S   UNL     1      -3.357  10.334 -24.515  1.00  0.00     0.179 S 
ATOM     14  O   UNL     1      -2.148  11.145 -24.673  1.00  0.00    -0.235 OA
ATOM     15  O   UNL     1      -3.842   9.788 -25.789  1.00  0.00    -0.235 OA
ATOM     16  O   UNL     1      -3.271   9.330 -23.455  1.00  0.00    -0.742 OA
ENDBRANCH  10  13
ENDBRANCH   7  10
ENDBRANCH   6   7
ENDBRANCH   5   6
ENDBRANCH   4   5
ENDBRANCH   3   4
ENDBRANCH   2   3
ENDBRANCH   1   2
BRANCH   1  17
ATOM     17  C   UNL     1      -6.450  12.757 -19.829  1.00  0.00     0.006 C 
BRANCH  17  18
ATOM     18  C   UNL     1      -5.695  11.420 -19.909  1.00  0.00     0.084 C 
BRANCH  18  19
ATOM     19  C   UNL     1      -4.191  11.562 -19.653  1.00  0.00     0.316 C 
ATOM     20  F   UNL     1      -3.530  10.913 -20.646  1.00  0.00    -0.200 F 
ATOM     21  F   UNL     1      -3.854  12.878 -19.796  1.00  0.00    -0.200 F 
BRANCH  19  22
ATOM     22  C   UNL     1      -3.707  11.095 -18.272  1.00  0.00     0.378 C 
ATOM     23  F   UNL     1      -2.572  10.352 -18.453  1.00  0.00    -0.193 F 
ATOM     24  F   UNL     1      -4.624  10.237 -17.739  1.00  0.00    -0.193 F 
BRANCH  22  25
ATOM     25  C   UNL     1      -3.414  12.191 -17.254  1.00  0.00     0.384 C 
ATOM     26  F   UNL     1      -4.453  13.076 -17.252  1.00  0.00    -0.192 F 
ATOM     27  F   UNL     1      -2.339  12.929 -17.663  1.00  0.00    -0.192 F 
BRANCH  25  28
ATOM     28  C   UNL     1      -3.143  11.709 -15.830  1.00  0.00     0.387 C 
ATOM     29  F   UNL     1      -2.697  10.431 -15.803  1.00  0.00    -0.192 F 
ATOM     30  F   UNL     1      -4.355  11.665 -15.174  1.00  0.00    -0.192 F 
BRANCH  28  31
ATOM     31  C   UNL     1      -2.239  12.596 -14.984  1.00  0.00     0.409 C 
ATOM     32  F   UNL     1      -2.898  13.779 -14.750  1.00  0.00    -0.189 F 
ATOM     33  F   UNL     1      -1.130  12.951 -15.698  1.00  0.00    -0.189 F 
BRANCH  31  34
ATOM     34  C   UNL     1      -1.834  11.996 -13.657  1.00  0.00     0.460 C 
ATOM     35  F   UNL     1      -0.487  11.994 -13.506  1.00  0.00    -0.165 F 
ATOM     36  F   UNL     1      -2.346  12.688 -12.615  1.00  0.00    -0.165 F 
ATOM     37  F   UNL     1      -2.237  10.713 -13.537  1.00  0.00    -0.165 F 
ENDBRANCH  31  34
ENDBRANCH  28  31
ENDBRANCH  25  28
ENDBRANCH  22  25
ENDBRANCH  19  22
ENDBRANCH  18  19
ENDBRANCH  17  18
ENDBRANCH   1  17
TORSDOF 16
ENDMDL
MODEL 4
REMARK VINA RESULT:    -6.619      5.718      7.418
REMARK INTER + INTRA:         -14.965
REMARK INTER:                 -13.226
REMARK INTRA:                  -1.739
REMARK UNBOUND:                -2.155
REMARK SMILES O=S(=O)([O-])C(F)(F)S(=O)(=O)OCCCCCCCC(F)(F)C(F)(F)C(F)(F)C(F)(F)C(F)(F)C(F)(F)F
REMARK SMILES IDX 16 1 15 2 14 3 13 4 12 5 11 6 8 7 9 8 10 9 5 10 6 11 7 12
REMARK SMILES IDX 2 13 1 14 3 15 4 16 17 17 18 18 19 19 20 20 21 21 22 22
REMARK SMILES IDX 23 23 24 24 25 25 26 26 27 27 28 28 29 29 30 30 31 31 32 32
REMARK SMILES IDX 33 33 34 34 35 35 36 36 37 37
REMARK H PARENT
ROOT
ATOM      1  C   UNL     1      -7.797  13.063 -19.380  1.00  0.00     0.000 C 
ENDROOT
BRANCH   1   2
ATOM      2  C   UNL     1      -8.411  11.668 -19.534  1.00  0.00     0.000 C 
BRANCH   2   3
ATOM      3  C   UNL     1      -9.056  11.362 -20.890  1.00  0.00     0.002 C 
BRANCH   3   4
ATOM      4  C   UNL     1      -8.203  10.558 -21.870  1.00  0.00     0.030 C 
BRANCH   4   5
ATOM      5  C   UNL     1      -7.241  11.403 -22.694  1.00  0.00     0.183 C 
BRANCH   5   6
ATOM      6  O   UNL     1      -5.968  10.771 -22.660  1.00  0.00    -0.265 OA
BRANCH   6   7
ATOM      7  S   UNL     1      -5.444   9.975 -24.006  1.00  0.00     0.348 S 
ATOM      8  O   UNL     1      -6.165  10.620 -25.094  1.00  0.00    -0.192 OA
ATOM      9  O   UNL     1      -5.667   8.565 -23.727  1.00  0.00    -0.192 OA
BRANCH   7  10
ATOM     10  C   UNL     1      -3.702  10.520 -23.902  1.00  0.00     0.459 C 
ATOM     11  F   UNL     1      -3.602  11.632 -23.083  1.00  0.00    -0.171 F 
ATOM     12  F   UNL     1      -2.935   9.566 -23.250  1.00  0.00    -0.171 F 
BRANCH  10  13
ATOM     13  S   UNL     1      -3.112  10.832 -25.581  1.00  0.00     0.179 S 
ATOM     14  O   UNL     1      -3.786  12.062 -26.004  1.00  0.00    -0.235 OA
ATOM     15  O   UNL     1      -3.548   9.657 -26.346  1.00  0.00    -0.235 OA
ATOM     16  O   UNL     1      -1.658  10.949 -25.485  1.00  0.00    -0.742 OA
ENDBRANCH  10  13
ENDBRANCH   7  10
ENDBRANCH   6   7
ENDBRANCH   5   6
ENDBRANCH   4   5
ENDBRANCH   3   4
ENDBRANCH   2   3
ENDBRANCH   1   2
BRANCH   1  17
ATOM     17  C   UNL     1      -6.274  13.081 -19.538  1.00  0.00     0.006 C 
BRANCH  17  18
ATOM     18  C   UNL     1      -5.634  11.704 -19.297  1.00  0.00     0.084 C 
BRANCH  18  19
ATOM     19  C   UNL     1      -4.104  11.750 -19.262  1.00  0.00     0.316 C 
ATOM     20  F   UNL     1      -3.635  11.043 -20.323  1.00  0.00    -0.200 F 
ATOM     21  F   UNL     1      -3.706  13.038 -19.483  1.00  0.00    -0.200 F 
BRANCH  19  22
ATOM     22  C   UNL     1      -3.457  11.271 -17.953  1.00  0.00     0.378 C 
ATOM     23  F   UNL     1      -2.280  10.647 -18.269  1.00  0.00    -0.193 F 
ATOM     24  F   UNL     1      -4.240  10.308 -17.388  1.00  0.00    -0.193 F 
BRANCH  22  25
ATOM     25  C   UNL     1      -3.173  12.345 -16.909  1.00  0.00     0.384 C 
ATOM     26  F   UNL     1      -4.213  13.230 -16.898  1.00  0.00    -0.192 F 
ATOM     27  F   UNL     1      -2.095  13.092 -17.292  1.00  0.00    -0.192 F 
BRANCH  25  28
ATOM     28  C   UNL     1      -2.914  11.833 -15.493  1.00  0.00     0.387 C 
ATOM     29  F   UNL     1      -2.431  10.568 -15.492  1.00  0.00    -0.192 F 
ATOM     30  F   UNL     1      -4.137  11.736 -14.863  1.00  0.00    -0.192 F 
BRANCH  28  31
ATOM     31  C   UNL     1      -2.054  12.723 -14.607  1.00  0.00     0.409 C 
ATOM     32  F   UNL     1      -2.650  13.959 -14.533  1.00  0.00    -0.189 F 
ATOM     33  F   UNL     1      -0.847  12.953 -15.205  1.00  0.00    -0.189 F 
BRANCH  31  34
ATOM     34  C   UNL     1      -1.847  12.200 -13.204  1.00  0.00     0.460 C 
ATOM     35  F   UNL     1      -0.561  12.354 -12.802  1.00  0.00    -0.165 F 
ATOM     36  F   UNL     1      -2.620  12.849 -12.306  1.00  0.00    -0.165 F 
ATOM     37  F   UNL     1      -2.124  10.881 -13.108  1.00  0.00    -0.165 F 
ENDBRANCH  31  34
ENDBRANCH  28  31
ENDBRANCH  25  28
ENDBRANCH  22  25
ENDBRANCH  19  22
ENDBRANCH  18  19
ENDBRANCH  17  18
ENDBRANCH   1  17
TORSDOF 16
ENDMDL
MODEL 5
REMARK VINA RESULT:    -6.596      1.762      2.107
REMARK INTER + INTRA:         -14.921
REMARK INTER:                 -13.184
REMARK INTRA:                  -1.736
REMARK UNBOUND:                -2.155
REMARK SMILES O=S(=O)([O-])C(F)(F)S(=O)(=O)OCCCCCCCC(F)(F)C(F)(F)C(F)(F)C(F)(F)C(F)(F)C(F)(F)F
REMARK SMILES IDX 16 1 15 2 14 3 13 4 12 5 11 6 8 7 9 8 10 9 5 10 6 11 7 12
REMARK SMILES IDX 2 13 1 14 3 15 4 16 17 17 18 18 19 19 20 20 21 21 22 22
REMARK SMILES IDX 23 23 24 24 25 25 26 26 27 27 28 28 29 29 30 30 31 31 32 32
REMARK SMILES IDX 33 33 34 34 35 35 36 36 37 37
REMARK H PARENT
ROOT
ATOM      1  C   UNL     1      -6.935  12.914 -17.581  1.00  0.00     0.000 C 
ENDROOT
BRANCH   1   2
ATOM      2  C   UNL     1      -7.289  11.573 -16.930  1.00  0.00     0.000 C 
BRANCH   2   3
ATOM      3  C   UNL     1      -8.327  11.625 -15.804  1.00  0.00     0.002 C 
BRANCH   3   4
ATOM      4  C   UNL     1      -8.316  12.887 -14.943  1.00  0.00     0.030 C 
BRANCH   4   5
ATOM      5  C   UNL     1      -9.631  13.656 -14.952  1.00  0.00     0.183 C 
BRANCH   5   6
ATOM      6  O   UNL     1      -9.337  15.024 -14.702  1.00  0.00    -0.265 OA
BRANCH   6   7
ATOM      7  S   UNL     1     -10.575  16.112 -14.696  1.00  0.00     0.348 S 
ATOM      8  O   UNL     1     -11.445  15.643 -13.626  1.00  0.00    -0.192 OA
ATOM      9  O   UNL     1     -11.065  16.140 -16.066  1.00  0.00    -0.192 OA
BRANCH   7  10
ATOM     10  C   UNL     1      -9.575  17.560 -14.200  1.00  0.00     0.459 C 
ATOM     11  F   UNL     1      -9.279  17.491 -12.849  1.00  0.00    -0.171 F 
ATOM     12  F   UNL     1      -8.328  17.518 -14.808  1.00  0.00    -0.171 F 
BRANCH  10  13
ATOM     13  S   UNL     1     -10.493  19.052 -14.641  1.00  0.00     0.179 S 
ATOM     14  O   UNL     1      -9.873  20.129 -13.867  1.00  0.00    -0.235 OA
ATOM     15  O   UNL     1     -11.871  18.772 -14.217  1.00  0.00    -0.235 OA
ATOM     16  O   UNL     1     -10.357  19.199 -16.090  1.00  0.00    -0.742 OA
ENDBRANCH  10  13
ENDBRANCH   7  10
ENDBRANCH   6   7
ENDBRANCH   5   6
ENDBRANCH   4   5
ENDBRANCH   3   4
ENDBRANCH   2   3
ENDBRANCH   1   2
BRANCH   1  17
ATOM     17  C   UNL     1      -6.387  12.776 -19.005  1.00  0.00     0.006 C 
BRANCH  17  18
ATOM     18  C   UNL     1      -5.604  11.470 -19.217  1.00  0.00     0.084 C 
BRANCH  18  19
ATOM     19  C   UNL     1      -4.087  11.655 -19.118  1.00  0.00     0.316 C 
ATOM     20  F   UNL     1      -3.514  11.022 -20.173  1.00  0.00    -0.200 F 
ATOM     21  F   UNL     1      -3.803  12.980 -19.293  1.00  0.00    -0.200 F 
BRANCH  19  22
ATOM     22  C   UNL     1      -3.451  11.205 -17.793  1.00  0.00     0.378 C 
ATOM     23  F   UNL     1      -2.326  10.484 -18.090  1.00  0.00    -0.193 F 
ATOM     24  F   UNL     1      -4.289  10.333 -17.163  1.00  0.00    -0.193 F 
BRANCH  22  25
ATOM     25  C   UNL     1      -3.074  12.313 -16.816  1.00  0.00     0.384 C 
ATOM     26  F   UNL     1      -4.039  13.278 -16.855  1.00  0.00    -0.192 F 
ATOM     27  F   UNL     1      -1.942  12.946 -17.245  1.00  0.00    -0.192 F 
BRANCH  25  28
ATOM     28  C   UNL     1      -2.848  11.866 -15.372  1.00  0.00     0.387 C 
ATOM     29  F   UNL     1      -2.377  10.598 -15.301  1.00  0.00    -0.192 F 
ATOM     30  F   UNL     1      -4.084  11.808 -14.762  1.00  0.00    -0.192 F 
BRANCH  28  31
ATOM     31  C   UNL     1      -1.997  12.790 -14.512  1.00  0.00     0.409 C 
ATOM     32  F   UNL     1      -2.527  14.055 -14.588  1.00  0.00    -0.189 F 
ATOM     33  F   UNL     1      -0.744  12.904 -15.044  1.00  0.00    -0.189 F 
BRANCH  31  34
ATOM     34  C   UNL     1      -1.909  12.388 -13.057  1.00  0.00     0.460 C 
ATOM     35  F   UNL     1      -0.713  12.732 -12.520  1.00  0.00    -0.165 F 
ATOM     36  F   UNL     1      -2.863  12.988 -12.311  1.00  0.00    -0.165 F 
ATOM     37  F   UNL     1      -2.035  11.054 -12.891  1.00  0.00    -0.165 F 
ENDBRANCH  31  34
ENDBRANCH  28  31
ENDBRANCH  25  28
ENDBRANCH  22  25
ENDBRANCH  19  22
ENDBRANCH  18  19
ENDBRANCH  17  18
ENDBRANCH   1  17
TORSDOF 16
ENDMDL
MODEL 6
REMARK VINA RESULT:    -6.444      1.265      2.040
REMARK INTER + INTRA:         -14.626
REMARK INTER:                 -13.437
REMARK INTRA:                  -1.189
REMARK UNBOUND:                -2.155
REMARK SMILES O=S(=O)([O-])C(F)(F)S(=O)(=O)OCCCCCCCC(F)(F)C(F)(F)C(F)(F)C(F)(F)C(F)(F)C(F)(F)F
REMARK SMILES IDX 16 1 15 2 14 3 13 4 12 5 11 6 8 7 9 8 10 9 5 10 6 11 7 12
REMARK SMILES IDX 2 13 1 14 3 15 4 16 17 17 18 18 19 19 20 20 21 21 22 22
REMARK SMILES IDX 23 23 24 24 25 25 26 26 27 27 28 28 29 29 30 30 31 31 32 32
REMARK SMILES IDX 33 33 34 34 35 35 36 36 37 37
REMARK H PARENT
ROOT
ATOM      1  C   UNL     1      -7.715  11.834 -15.764  1.00  0.00     0.000 C 
ENDROOT
BRANCH   1   2
ATOM      2  C   UNL     1      -8.735  10.716 -16.003  1.00  0.00     0.000 C 
BRANCH   2   3
ATOM      3  C   UNL     1      -9.940  10.690 -15.057  1.00  0.00     0.002 C 
BRANCH   3   4
ATOM      4  C   UNL     1     -10.918  11.857 -15.189  1.00  0.00     0.030 C 
BRANCH   4   5
ATOM      5  C   UNL     1     -11.880  11.995 -14.017  1.00  0.00     0.183 C 
BRANCH   5   6
ATOM      6  O   UNL     1     -11.204  12.694 -12.979  1.00  0.00    -0.265 OA
BRANCH   6   7
ATOM      7  S   UNL     1     -11.658  14.242 -12.642  1.00  0.00     0.348 S 
ATOM      8  O   UNL     1     -11.913  14.225 -11.208  1.00  0.00    -0.192 OA
ATOM      9  O   UNL     1     -12.744  14.531 -13.565  1.00  0.00    -0.192 OA
BRANCH   7  10
ATOM     10  C   UNL     1     -10.058  15.021 -13.058  1.00  0.00     0.459 C 
ATOM     11  F   UNL     1      -9.513  15.615 -11.932  1.00  0.00    -0.171 F 
ATOM     12  F   UNL     1      -9.123  14.054 -13.399  1.00  0.00    -0.171 F 
BRANCH  10  13
ATOM     13  S   UNL     1     -10.339  16.195 -14.402  1.00  0.00     0.179 S 
ATOM     14  O   UNL     1     -10.704  15.376 -15.560  1.00  0.00    -0.235 OA
ATOM     15  O   UNL     1      -9.047  16.872 -14.573  1.00  0.00    -0.235 OA
ATOM     16  O   UNL     1     -11.400  17.091 -13.943  1.00  0.00    -0.742 OA
ENDBRANCH  10  13
ENDBRANCH   7  10
ENDBRANCH   6   7
ENDBRANCH   5   6
ENDBRANCH   4   5
ENDBRANCH   3   4
ENDBRANCH   2   3
ENDBRANCH   1   2
BRANCH   1  17
ATOM     17  C   UNL     1      -7.691  12.887 -16.877  1.00  0.00     0.006 C 
BRANCH  17  18
ATOM     18  C   UNL     1      -6.866  12.445 -18.097  1.00  0.00     0.084 C 
BRANCH  18  19
ATOM     19  C   UNL     1      -5.390  12.842 -18.001  1.00  0.00     0.316 C 
ATOM     20  F   UNL     1      -5.111  13.685 -19.028  1.00  0.00    -0.200 F 
ATOM     21  F   UNL     1      -5.217  13.584 -16.867  1.00  0.00    -0.200 F 
BRANCH  19  22
ATOM     22  C   UNL     1      -4.392  11.674 -17.961  1.00  0.00     0.378 C 
ATOM     23  F   UNL     1      -4.127  11.303 -19.251  1.00  0.00    -0.193 F 
ATOM     24  F   UNL     1      -4.987  10.591 -17.383  1.00  0.00    -0.193 F 
BRANCH  22  25
ATOM     25  C   UNL     1      -3.070  11.942 -17.251  1.00  0.00     0.384 C 
ATOM     26  F   UNL     1      -2.703  13.236 -17.483  1.00  0.00    -0.192 F 
ATOM     27  F   UNL     1      -2.076  11.199 -17.823  1.00  0.00    -0.192 F 
BRANCH  25  28
ATOM     28  C   UNL     1      -3.063  11.664 -15.748  1.00  0.00     0.387 C 
ATOM     29  F   UNL     1      -2.788  10.367 -15.474  1.00  0.00    -0.192 F 
ATOM     30  F   UNL     1      -4.351  11.847 -15.292  1.00  0.00    -0.192 F 
BRANCH  28  31
ATOM     31  C   UNL     1      -2.184  12.576 -14.903  1.00  0.00     0.409 C 
ATOM     32  F   UNL     1      -2.874  13.742 -14.672  1.00  0.00    -0.189 F 
ATOM     33  F   UNL     1      -1.083  12.958 -15.616  1.00  0.00    -0.189 F 
BRANCH  31  34
ATOM     34  C   UNL     1      -1.765  11.989 -13.574  1.00  0.00     0.460 C 
ATOM     35  F   UNL     1      -2.226  10.722 -13.425  1.00  0.00    -0.165 F 
ATOM     36  F   UNL     1      -0.420  11.936 -13.450  1.00  0.00    -0.165 F 
ATOM     37  F   UNL     1      -2.247  12.699 -12.532  1.00  0.00    -0.165 F 
ENDBRANCH  31  34
ENDBRANCH  28  31
ENDBRANCH  25  28
ENDBRANCH  22  25
ENDBRANCH  19  22
ENDBRANCH  18  19
ENDBRANCH  17  18
ENDBRANCH   1  17
TORSDOF 16
ENDMDL
MODEL 7
REMARK VINA RESULT:    -6.265      0.926      1.892
REMARK INTER + INTRA:         -14.280
REMARK INTER:                 -12.798
REMARK INTRA:                  -1.482
REMARK UNBOUND:                -2.155
REMARK SMILES O=S(=O)([O-])C(F)(F)S(=O)(=O)OCCCCCCCC(F)(F)C(F)(F)C(F)(F)C(F)(F)C(F)(F)C(F)(F)F
REMARK SMILES IDX 16 1 15 2 14 3 13 4 12 5 11 6 8 7 9 8 10 9 5 10 6 11 7 12
REMARK SMILES IDX 2 13 1 14 3 15 4 16 17 17 18 18 19 19 20 20 21 21 22 22
REMARK SMILES IDX 23 23 24 24 25 25 26 26 27 27 28 28 29 29 30 30 31 31 32 32
REMARK SMILES IDX 33 33 34 34 35 35 36 36 37 37
REMARK H PARENT
ROOT
ATOM      1  C   UNL     1      -8.547  12.965 -17.802  1.00  0.00     0.000 C 
ENDROOT
BRANCH   1   2
ATOM      2  C   UNL     1      -8.347  11.723 -16.928  1.00  0.00     0.000 C 
BRANCH   2   3
ATOM      3  C   UNL     1      -9.521  10.739 -16.877  1.00  0.00     0.002 C 
BRANCH   3   4
ATOM      4  C   UNL     1      -9.937  10.268 -15.484  1.00  0.00     0.030 C 
BRANCH   4   5
ATOM      5  C   UNL     1     -11.249  10.867 -14.993  1.00  0.00     0.183 C 
BRANCH   5   6
ATOM      6  O   UNL     1     -10.942  11.821 -13.985  1.00  0.00    -0.265 OA
BRANCH   6   7
ATOM      7  S   UNL     1     -11.433  13.380 -14.194  1.00  0.00     0.348 S 
ATOM      8  O   UNL     1     -12.627  13.483 -13.368  1.00  0.00    -0.192 OA
ATOM      9  O   UNL     1     -11.533  13.558 -15.634  1.00  0.00    -0.192 OA
BRANCH   7  10
ATOM     10  C   UNL     1      -9.975  14.161 -13.416  1.00  0.00     0.459 C 
ATOM     11  F   UNL     1      -9.868  13.756 -12.096  1.00  0.00    -0.171 F 
ATOM     12  F   UNL     1      -8.806  13.689 -13.995  1.00  0.00    -0.171 F 
BRANCH  10  13
ATOM     13  S   UNL     1     -10.140  15.952 -13.587  1.00  0.00     0.179 S 
ATOM     14  O   UNL     1      -9.340  16.303 -14.763  1.00  0.00    -0.235 OA
ATOM     15  O   UNL     1      -9.581  16.492 -12.342  1.00  0.00    -0.235 OA
ATOM     16  O   UNL     1     -11.571  16.215 -13.736  1.00  0.00    -0.742 OA
ENDBRANCH  10  13
ENDBRANCH   7  10
ENDBRANCH   6   7
ENDBRANCH   5   6
ENDBRANCH   4   5
ENDBRANCH   3   4
ENDBRANCH   2   3
ENDBRANCH   1   2
BRANCH   1  17
ATOM     17  C   UNL     1      -7.841  12.878 -19.158  1.00  0.00     0.006 C 
BRANCH  17  18
ATOM     18  C   UNL     1      -7.028  11.584 -19.324  1.00  0.00     0.084 C 
BRANCH  18  19
ATOM     19  C   UNL     1      -5.659  11.812 -19.971  1.00  0.00     0.316 C 
ATOM     20  F   UNL     1      -5.624  11.125 -21.142  1.00  0.00    -0.200 F 
ATOM     21  F   UNL     1      -5.563  13.129 -20.322  1.00  0.00    -0.200 F 
BRANCH  19  22
ATOM     22  C   UNL     1      -4.445  11.466 -19.093  1.00  0.00     0.378 C 
ATOM     23  F   UNL     1      -3.466  10.965 -19.908  1.00  0.00    -0.193 F 
ATOM     24  F   UNL     1      -4.775  10.447 -18.249  1.00  0.00    -0.193 F 
BRANCH  22  25
ATOM     25  C   UNL     1      -3.859  12.609 -18.274  1.00  0.00     0.384 C 
ATOM     26  F   UNL     1      -4.864  13.199 -17.563  1.00  0.00    -0.192 F 
ATOM     27  F   UNL     1      -3.407  13.594 -19.106  1.00  0.00    -0.192 F 
BRANCH  25  28
ATOM     28  C   UNL     1      -2.718  12.224 -17.333  1.00  0.00     0.387 C 
ATOM     29  F   UNL     1      -1.743  13.165 -17.306  1.00  0.00    -0.192 F 
ATOM     30  F   UNL     1      -2.105  11.109 -17.865  1.00  0.00    -0.192 F 
BRANCH  28  31
ATOM     31  C   UNL     1      -3.119  11.846 -15.914  1.00  0.00     0.409 C 
ATOM     32  F   UNL     1      -2.927  10.494 -15.760  1.00  0.00    -0.189 F 
ATOM     33  F   UNL     1      -4.462  12.029 -15.743  1.00  0.00    -0.189 F 
BRANCH  31  34
ATOM     34  C   UNL     1      -2.354  12.571 -14.830  1.00  0.00     0.460 C 
ATOM     35  F   UNL     1      -2.486  11.952 -13.631  1.00  0.00    -0.165 F 
ATOM     36  F   UNL     1      -1.031  12.627 -15.101  1.00  0.00    -0.165 F 
ATOM     37  F   UNL     1      -2.793  13.837 -14.660  1.00  0.00    -0.165 F 
ENDBRANCH  31  34
ENDBRANCH  28  31
ENDBRANCH  25  28
ENDBRANCH  22  25
ENDBRANCH  19  22
ENDBRANCH  18  19
ENDBRANCH  17  18
ENDBRANCH   1  17
TORSDOF 16
ENDMDL
MODEL 8
REMARK VINA RESULT:    -6.229      2.417      4.764
REMARK INTER + INTRA:         -14.210
REMARK INTER:                 -11.967
REMARK INTRA:                  -2.243
REMARK UNBOUND:                -2.155
REMARK SMILES O=S(=O)([O-])C(F)(F)S(=O)(=O)OCCCCCCCC(F)(F)C(F)(F)C(F)(F)C(F)(F)C(F)(F)C(F)(F)F
REMARK SMILES IDX 16 1 15 2 14 3 13 4 12 5 11 6 8 7 9 8 10 9 5 10 6 11 7 12
REMARK SMILES IDX 2 13 1 14 3 15 4 16 17 17 18 18 19 19 20 20 21 21 22 22
REMARK SMILES IDX 23 23 24 24 25 25 26 26 27 27 28 28 29 29 30 30 31 31 32 32
REMARK SMILES IDX 33 33 34 34 35 35 36 36 37 37
REMARK H PARENT
ROOT
ATOM      1  C   UNL     1     -12.067  10.643 -15.229  1.00  0.00     0.000 C 
ENDROOT
BRANCH   1   2
ATOM      2  C   UNL     1     -11.779  11.094 -13.794  1.00  0.00     0.000 C 
BRANCH   2   3
ATOM      3  C   UNL     1     -12.340  12.461 -13.391  1.00  0.00     0.002 C 
BRANCH   3   4
ATOM      4  C   UNL     1     -11.310  13.510 -12.975  1.00  0.00     0.030 C 
BRANCH   4   5
ATOM      5  C   UNL     1     -11.343  14.781 -13.814  1.00  0.00     0.183 C 
BRANCH   5   6
ATOM      6  O   UNL     1     -10.003  15.226 -13.982  1.00  0.00    -0.265 OA
BRANCH   6   7
ATOM      7  S   UNL     1      -9.676  16.320 -15.171  1.00  0.00     0.348 S 
ATOM      8  O   UNL     1     -10.876  16.305 -15.996  1.00  0.00    -0.192 OA
ATOM      9  O   UNL     1      -8.404  15.900 -15.737  1.00  0.00    -0.192 OA
BRANCH   7  10
ATOM     10  C   UNL     1      -9.595  17.787 -14.083  1.00  0.00     0.459 C 
ATOM     11  F   UNL     1     -10.873  18.235 -13.794  1.00  0.00    -0.171 F 
ATOM     12  F   UNL     1      -9.084  17.440 -12.840  1.00  0.00    -0.171 F 
BRANCH  10  13
ATOM     13  S   UNL     1      -8.584  19.038 -14.906  1.00  0.00     0.179 S 
ATOM     14  O   UNL     1      -7.200  18.593 -14.730  1.00  0.00    -0.235 OA
ATOM     15  O   UNL     1      -8.876  20.280 -14.178  1.00  0.00    -0.235 OA
ATOM     16  O   UNL     1      -9.031  19.070 -16.298  1.00  0.00    -0.742 OA
ENDBRANCH  10  13
ENDBRANCH   7  10
ENDBRANCH   6   7
ENDBRANCH   5   6
ENDBRANCH   4   5
ENDBRANCH   3   4
ENDBRANCH   2   3
ENDBRANCH   1   2
BRANCH   1  17
ATOM     17  C   UNL     1     -10.813  10.220 -16.001  1.00  0.00     0.006 C 
BRANCH  17  18
ATOM     18  C   UNL     1      -9.512  10.660 -15.309  1.00  0.00     0.084 C 
BRANCH  18  19
ATOM     19  C   UNL     1      -8.891  11.911 -15.935  1.00  0.00     0.316 C 
ATOM     20  F   UNL     1      -9.895  12.676 -16.436  1.00  0.00    -0.200 F 
ATOM     21  F   UNL     1      -8.331  12.659 -14.939  1.00  0.00    -0.200 F 
BRANCH  19  22
ATOM     22  C   UNL     1      -7.812  11.654 -16.999  1.00  0.00     0.378 C 
ATOM     23  F   UNL     1      -8.227  12.233 -18.168  1.00  0.00    -0.193 F 
ATOM     24  F   UNL     1      -7.744  10.316 -17.258  1.00  0.00    -0.193 F 
BRANCH  22  25
ATOM     25  C   UNL     1      -6.412  12.161 -16.674  1.00  0.00     0.384 C 
ATOM     26  F   UNL     1      -6.026  11.642 -15.472  1.00  0.00    -0.192 F 
ATOM     27  F   UNL     1      -6.443  13.511 -16.468  1.00  0.00    -0.192 F 
BRANCH  25  28
ATOM     28  C   UNL     1      -5.346  11.868 -17.730  1.00  0.00     0.387 C 
ATOM     29  F   UNL     1      -5.479  12.662 -18.819  1.00  0.00    -0.192 F 
ATOM     30  F   UNL     1      -5.578  10.594 -18.203  1.00  0.00    -0.192 F 
BRANCH  28  31
ATOM     31  C   UNL     1      -3.903  11.881 -17.245  1.00  0.00     0.409 C 
ATOM     32  F   UNL     1      -3.658  10.693 -16.598  1.00  0.00    -0.189 F 
ATOM     33  F   UNL     1      -3.740  12.840 -16.285  1.00  0.00    -0.189 F 
BRANCH  31  34
ATOM     34  C   UNL     1      -2.875  12.059 -18.339  1.00  0.00     0.460 C 
ATOM     35  F   UNL     1      -3.208  11.358 -19.450  1.00  0.00    -0.165 F 
ATOM     36  F   UNL     1      -2.754  13.353 -18.710  1.00  0.00    -0.165 F 
ATOM     37  F   UNL     1      -1.653  11.624 -17.961  1.00  0.00    -0.165 F 
ENDBRANCH  31  34
ENDBRANCH  28  31
ENDBRANCH  25  28
ENDBRANCH  22  25
ENDBRANCH  19  22
ENDBRANCH  18  19
ENDBRANCH  17  18
ENDBRANCH   1  17
TORSDOF 16
ENDMDL
MODEL 9
REMARK VINA RESULT:    -6.190      1.458      2.765
REMARK INTER + INTRA:         -14.136
REMARK INTER:                 -12.112
REMARK INTRA:                  -2.023
REMARK UNBOUND:                -2.155
REMARK SMILES O=S(=O)([O-])C(F)(F)S(=O)(=O)OCCCCCCCC(F)(F)C(F)(F)C(F)(F)C(F)(F)C(F)(F)C(F)(F)F
REMARK SMILES IDX 16 1 15 2 14 3 13 4 12 5 11 6 8 7 9 8 10 9 5 10 6 11 7 12
REMARK SMILES IDX 2 13 1 14 3 15 4 16 17 17 18 18 19 19 20 20 21 21 22 22
REMARK SMILES IDX 23 23 24 24 25 25 26 26 27 27 28 28 29 29 30 30 31 31 32 32
REMARK SMILES IDX 33 33 34 34 35 35 36 36 37 37
REMARK H PARENT
ROOT
ATOM      1  C   UNL     1      -9.341  11.159 -18.629  1.00  0.00     0.000 C 
ENDROOT
BRANCH   1   2
ATOM      2  C   UNL     1      -8.184  10.970 -17.643  1.00  0.00     0.000 C 
BRANCH   2   3
ATOM      3  C   UNL     1      -8.576  10.710 -16.185  1.00  0.00     0.002 C 
BRANCH   3   4
ATOM      4  C   UNL     1      -9.891   9.963 -15.971  1.00  0.00     0.030 C 
BRANCH   4   5
ATOM      5  C   UNL     1     -10.985  10.804 -15.326  1.00  0.00     0.183 C 
BRANCH   5   6
ATOM      6  O   UNL     1     -10.356  11.872 -14.627  1.00  0.00    -0.265 OA
BRANCH   6   7
ATOM      7  S   UNL     1     -11.237  13.224 -14.290  1.00  0.00     0.348 S 
ATOM      8  O   UNL     1     -11.996  12.858 -13.102  1.00  0.00    -0.192 OA
ATOM      9  O   UNL     1     -11.936  13.541 -15.525  1.00  0.00    -0.192 OA
BRANCH   7  10
ATOM     10  C   UNL     1      -9.814  14.305 -13.905  1.00  0.00     0.459 C 
ATOM     11  F   UNL     1      -9.281  13.965 -12.673  1.00  0.00    -0.171 F 
ATOM     12  F   UNL     1      -8.771  14.065 -14.788  1.00  0.00    -0.171 F 
BRANCH  10  13
ATOM     13  S   UNL     1     -10.379  16.020 -13.974  1.00  0.00     0.179 S 
ATOM     14  O   UNL     1      -9.447  16.767 -13.127  1.00  0.00    -0.235 OA
ATOM     15  O   UNL     1     -11.738  15.979 -13.420  1.00  0.00    -0.235 OA
ATOM     16  O   UNL     1     -10.345  16.402 -15.385  1.00  0.00    -0.742 OA
ENDBRANCH  10  13
ENDBRANCH   7  10
ENDBRANCH   6   7
ENDBRANCH   5   6
ENDBRANCH   4   5
ENDBRANCH   3   4
ENDBRANCH   2   3
ENDBRANCH   1   2
BRANCH   1  17
ATOM     17  C   UNL     1      -8.902  11.149 -20.096  1.00  0.00     0.006 C 
BRANCH  17  18
ATOM     18  C   UNL     1      -7.505  10.539 -20.295  1.00  0.00     0.084 C 
BRANCH  18  19
ATOM     19  C   UNL     1      -6.549  11.461 -21.057  1.00  0.00     0.316 C 
ATOM     20  F   UNL     1      -5.799  10.697 -21.892  1.00  0.00    -0.200 F 
ATOM     21  F   UNL     1      -7.289  12.268 -21.874  1.00  0.00    -0.200 F 
BRANCH  19  22
ATOM     22  C   UNL     1      -5.659  12.360 -20.184  1.00  0.00     0.378 C 
ATOM     23  F   UNL     1      -6.474  13.070 -19.344  1.00  0.00    -0.193 F 
ATOM     24  F   UNL     1      -5.047  13.291 -20.971  1.00  0.00    -0.193 F 
BRANCH  22  25
ATOM     25  C   UNL     1      -4.598  11.651 -19.350  1.00  0.00     0.384 C 
ATOM     26  F   UNL     1      -3.663  11.120 -20.190  1.00  0.00    -0.192 F 
ATOM     27  F   UNL     1      -5.147  10.568 -18.723  1.00  0.00    -0.192 F 
BRANCH  25  28
ATOM     28  C   UNL     1      -3.912  12.513 -18.291  1.00  0.00     0.387 C 
ATOM     29  F   UNL     1      -4.801  13.248 -17.581  1.00  0.00    -0.192 F 
ATOM     30  F   UNL     1      -3.146  13.447 -18.955  1.00  0.00    -0.192 F 
BRANCH  28  31
ATOM     31  C   UNL     1      -2.964  11.785 -17.348  1.00  0.00     0.409 C 
ATOM     32  F   UNL     1      -1.814  12.530 -17.237  1.00  0.00    -0.189 F 
ATOM     33  F   UNL     1      -2.561  10.605 -17.908  1.00  0.00    -0.189 F 
BRANCH  31  34
ATOM     34  C   UNL     1      -3.519  11.541 -15.963  1.00  0.00     0.460 C 
ATOM     35  F   UNL     1      -4.865  11.380 -15.991  1.00  0.00    -0.165 F 
ATOM     36  F   UNL     1      -3.001  10.426 -15.403  1.00  0.00    -0.165 F 
ATOM     37  F   UNL     1      -3.272  12.574 -15.129  1.00  0.00    -0.165 F 
ENDBRANCH  31  34
ENDBRANCH  28  31
ENDBRANCH  25  28
ENDBRANCH  22  25
ENDBRANCH  19  22
ENDBRANCH  18  19
ENDBRANCH  17  18
ENDBRANCH   1  17
TORSDOF 16
ENDMDL
MODEL 10
REMARK VINA RESULT:    -6.183      1.856      3.126
REMARK INTER + INTRA:         -14.121
REMARK INTER:                 -13.572
REMARK INTRA:                  -0.550
REMARK UNBOUND:                -2.155
REMARK SMILES O=S(=O)([O-])C(F)(F)S(=O)(=O)OCCCCCCCC(F)(F)C(F)(F)C(F)(F)C(F)(F)C(F)(F)C(F)(F)F
REMARK SMILES IDX 16 1 15 2 14 3 13 4 12 5 11 6 8 7 9 8 10 9 5 10 6 11 7 12
REMARK SMILES IDX 2 13 1 14 3 15 4 16 17 17 18 18 19 19 20 20 21 21 22 22
REMARK SMILES IDX 23 23 24 24 25 25 26 26 27 27 28 28 29 29 30 30 31 31 32 32
REMARK SMILES IDX 33 33 34 34 35 35 36 36 37 37
REMARK H PARENT
ROOT
ATOM      1  C   UNL     1      -7.919  11.050 -17.874  1.00  0.00     0.000 C 
ENDROOT
BRANCH   1   2
ATOM      2  C   UNL     1      -8.177  11.325 -16.389  1.00  0.00     0.000 C 
BRANCH   2   3
ATOM      3  C   UNL     1      -8.800  12.684 -16.053  1.00  0.00     0.002 C 
BRANCH   3   4
ATOM      4  C   UNL     1      -9.727  12.712 -14.838  1.00  0.00     0.030 C 
BRANCH   4   5
ATOM      5  C   UNL     1      -9.616  13.981 -14.003  1.00  0.00     0.183 C 
BRANCH   5   6
ATOM      6  O   UNL     1     -10.322  15.012 -14.682  1.00  0.00    -0.265 OA
BRANCH   6   7
ATOM      7  S   UNL     1     -10.106  16.571 -14.195  1.00  0.00     0.348 S 
ATOM      8  O   UNL     1      -9.445  16.445 -12.904  1.00  0.00    -0.192 OA
ATOM      9  O   UNL     1     -11.423  17.183 -14.276  1.00  0.00    -0.192 OA
BRANCH   7  10
ATOM     10  C   UNL     1      -8.948  17.045 -15.529  1.00  0.00     0.459 C 
ATOM     11  F   UNL     1      -7.972  16.074 -15.676  1.00  0.00    -0.171 F 
ATOM     12  F   UNL     1      -9.597  17.042 -16.756  1.00  0.00    -0.171 F 
BRANCH  10  13
ATOM     13  S   UNL     1      -8.266  18.669 -15.128  1.00  0.00     0.179 S 
ATOM     14  O   UNL     1      -9.014  19.122 -13.954  1.00  0.00    -0.235 OA
ATOM     15  O   UNL     1      -8.536  19.483 -16.320  1.00  0.00    -0.235 OA
ATOM     16  O   UNL     1      -6.839  18.460 -14.886  1.00  0.00    -0.742 OA
ENDBRANCH  10  13
ENDBRANCH   7  10
ENDBRANCH   6   7
ENDBRANCH   5   6
ENDBRANCH   4   5
ENDBRANCH   3   4
ENDBRANCH   2   3
ENDBRANCH   1   2
BRANCH   1  17
ATOM     17  C   UNL     1      -6.712  11.808 -18.435  1.00  0.00     0.006 C 
BRANCH  17  18
ATOM     18  C   UNL     1      -5.375  11.292 -17.879  1.00  0.00     0.084 C 
BRANCH  18  19
ATOM     19  C   UNL     1      -4.399  12.416 -17.517  1.00  0.00     0.316 C 
ATOM     20  F   UNL     1      -4.233  13.200 -18.613  1.00  0.00    -0.200 F 
ATOM     21  F   UNL     1      -4.995  13.219 -16.586  1.00  0.00    -0.200 F 
BRANCH  19  22
ATOM     22  C   UNL     1      -3.044  11.961 -16.954  1.00  0.00     0.378 C 
ATOM     23  F   UNL     1      -2.109  12.899 -17.300  1.00  0.00    -0.193 F 
ATOM     24  F   UNL     1      -2.658  10.813 -17.581  1.00  0.00    -0.193 F 
BRANCH  22  25
ATOM     25  C   UNL     1      -2.979  11.742 -15.448  1.00  0.00     0.384 C 
ATOM     26  F   UNL     1      -2.543  10.470 -15.209  1.00  0.00    -0.192 F 
ATOM     27  F   UNL     1      -4.238  11.774 -14.919  1.00  0.00    -0.192 F 
BRANCH  25  28
ATOM     28  C   UNL     1      -2.116  12.738 -14.675  1.00  0.00     0.387 C 
ATOM     29  F   UNL     1      -2.686  13.966 -14.618  1.00  0.00    -0.192 F 
ATOM     30  F   UNL     1      -0.960  12.929 -15.402  1.00  0.00    -0.192 F 
BRANCH  28  31
ATOM     31  C   UNL     1      -1.672  12.302 -13.286  1.00  0.00     0.409 C 
ATOM     32  F   UNL     1      -1.965  10.968 -13.142  1.00  0.00    -0.189 F 
ATOM     33  F   UNL     1      -2.426  12.929 -12.335  1.00  0.00    -0.189 F 
BRANCH  31  34
ATOM     34  C   UNL     1      -0.201  12.509 -13.003  1.00  0.00     0.460 C 
ATOM     35  F   UNL     1       0.571  11.722 -13.792  1.00  0.00    -0.165 F 
ATOM     36  F   UNL     1       0.180  13.786 -13.228  1.00  0.00    -0.165 F 
ATOM     37  F   UNL     1       0.118  12.204 -11.727  1.00  0.00    -0.165 F 
ENDBRANCH  31  34
ENDBRANCH  28  31
ENDBRANCH  25  28
ENDBRANCH  22  25
ENDBRANCH  19  22
ENDBRANCH  18  19
ENDBRANCH  17  18
ENDBRANCH   1  17
TORSDOF 16
ENDMDL
MODEL 11
REMARK VINA RESULT:    -6.107      2.788      5.005
REMARK INTER + INTRA:         -13.974
REMARK INTER:                 -11.833
REMARK INTRA:                  -2.142
REMARK UNBOUND:                -2.155
REMARK SMILES O=S(=O)([O-])C(F)(F)S(=O)(=O)OCCCCCCCC(F)(F)C(F)(F)C(F)(F)C(F)(F)C(F)(F)C(F)(F)F
REMARK SMILES IDX 16 1 15 2 14 3 13 4 12 5 11 6 8 7 9 8 10 9 5 10 6 11 7 12
REMARK SMILES IDX 2 13 1 14 3 15 4 16 17 17 18 18 19 19 20 20 21 21 22 22
REMARK SMILES IDX 23 23 24 24 25 25 26 26 27 27 28 28 29 29 30 30 31 31 32 32
REMARK SMILES IDX 33 33 34 34 35 35 36 36 37 37
REMARK H PARENT
ROOT
ATOM      1  C   UNL     1      -9.424  14.028 -14.337  1.00  0.00     0.000 C 
ENDROOT
BRANCH   1   2
ATOM      2  C   UNL     1      -9.670  14.170 -12.832  1.00  0.00     0.000 C 
BRANCH   2   3
ATOM      3  C   UNL     1     -10.660  15.262 -12.411  1.00  0.00     0.002 C 
BRANCH   3   4
ATOM      4  C   UNL     1     -12.023  15.229 -13.100  1.00  0.00     0.030 C 
BRANCH   4   5
ATOM      5  C   UNL     1     -12.252  16.374 -14.078  1.00  0.00     0.183 C 
BRANCH   5   6
ATOM      6  O   UNL     1     -11.328  17.408 -13.761  1.00  0.00    -0.265 OA
BRANCH   6   7
ATOM      7  S   UNL     1     -10.771  18.371 -14.976  1.00  0.00     0.348 S 
ATOM      8  O   UNL     1     -11.355  19.673 -14.684  1.00  0.00    -0.192 OA
ATOM      9  O   UNL     1     -11.126  17.679 -16.205  1.00  0.00    -0.192 OA
BRANCH   7  10
ATOM     10  C   UNL     1      -9.004  18.279 -14.518  1.00  0.00     0.459 C 
ATOM     11  F   UNL     1      -8.872  18.259 -13.140  1.00  0.00    -0.171 F 
ATOM     12  F   UNL     1      -8.464  17.063 -14.913  1.00  0.00    -0.171 F 
BRANCH  10  13
ATOM     13  S   UNL     1      -8.153  19.678 -15.282  1.00  0.00     0.179 S 
ATOM     14  O   UNL     1      -8.747  19.809 -16.614  1.00  0.00    -0.235 OA
ATOM     15  O   UNL     1      -6.744  19.267 -15.330  1.00  0.00    -0.235 OA
ATOM     16  O   UNL     1      -8.389  20.824 -14.405  1.00  0.00    -0.742 OA
ENDBRANCH  10  13
ENDBRANCH   7  10
ENDBRANCH   6   7
ENDBRANCH   5   6
ENDBRANCH   4   5
ENDBRANCH   3   4
ENDBRANCH   2   3
ENDBRANCH   1   2
BRANCH   1  17
ATOM     17  C   UNL     1      -9.754  12.635 -14.881  1.00  0.00     0.006 C 
BRANCH  17  18
ATOM     18  C   UNL     1      -9.903  12.613 -16.411  1.00  0.00     0.084 C 
BRANCH  18  19
ATOM     19  C   UNL     1      -8.914  11.667 -17.099  1.00  0.00     0.316 C 
ATOM     20  F   UNL     1      -8.646  10.644 -16.247  1.00  0.00    -0.200 F 
ATOM     21  F   UNL     1      -9.541  11.092 -18.167  1.00  0.00    -0.200 F 
BRANCH  19  22
ATOM     22  C   UNL     1      -7.617  12.318 -17.604  1.00  0.00     0.378 C 
ATOM     23  F   UNL     1      -7.594  13.611 -17.156  1.00  0.00    -0.193 F 
ATOM     24  F   UNL     1      -7.655  12.403 -18.964  1.00  0.00    -0.193 F 
BRANCH  22  25
ATOM     25  C   UNL     1      -6.317  11.637 -17.192  1.00  0.00     0.384 C 
ATOM     26  F   UNL     1      -6.404  10.308 -17.493  1.00  0.00    -0.192 F 
ATOM     27  F   UNL     1      -6.184  11.671 -15.833  1.00  0.00    -0.192 F 
BRANCH  25  28
ATOM     28  C   UNL     1      -5.046  12.223 -17.805  1.00  0.00     0.387 C 
ATOM     29  F   UNL     1      -5.198  13.527 -18.140  1.00  0.00    -0.192 F 
ATOM     30  F   UNL     1      -4.837  11.582 -19.008  1.00  0.00    -0.192 F 
BRANCH  28  31
ATOM     31  C   UNL     1      -3.767  12.035 -17.001  1.00  0.00     0.409 C 
ATOM     32  F   UNL     1      -3.689  10.717 -16.622  1.00  0.00    -0.189 F 
ATOM     33  F   UNL     1      -3.845  12.731 -15.828  1.00  0.00    -0.189 F 
BRANCH  31  34
ATOM     34  C   UNL     1      -2.500  12.403 -17.740  1.00  0.00     0.460 C 
ATOM     35  F   UNL     1      -1.562  12.902 -16.898  1.00  0.00    -0.165 F 
ATOM     36  F   UNL     1      -1.949  11.334 -18.355  1.00  0.00    -0.165 F 
ATOM     37  F   UNL     1      -2.718  13.351 -18.678  1.00  0.00    -0.165 F 
ENDBRANCH  31  34
ENDBRANCH  28  31
ENDBRANCH  25  28
ENDBRANCH  22  25
ENDBRANCH  19  22
ENDBRANCH  18  19
ENDBRANCH  17  18
ENDBRANCH   1  17
TORSDOF 16
ENDMDL
MODEL 12
REMARK VINA RESULT:    -6.090      5.884      7.770
REMARK INTER + INTRA:         -13.942
REMARK INTER:                 -11.741
REMARK INTRA:                  -2.201
REMARK UNBOUND:                -2.155
REMARK SMILES O=S(=O)([O-])C(F)(F)S(=O)(=O)OCCCCCCCC(F)(F)C(F)(F)C(F)(F)C(F)(F)C(F)(F)C(F)(F)F
REMARK SMILES IDX 16 1 15 2 14 3 13 4 12 5 11 6 8 7 9 8 10 9 5 10 6 11 7 12
REMARK SMILES IDX 2 13 1 14 3 15 4 16 17 17 18 18 19 19 20 20 21 21 22 22
REMARK SMILES IDX 23 23 24 24 25 25 26 26 27 27 28 28 29 29 30 30 31 31 32 32
REMARK SMILES IDX 33 33 34 34 35 35 36 36 37 37
REMARK H PARENT
ROOT
ATOM      1  C   UNL     1      -9.762  12.014 -20.066  1.00  0.00     0.000 C 
ENDROOT
BRANCH   1   2
ATOM      2  C   UNL     1     -10.154  11.522 -21.463  1.00  0.00     0.000 C 
BRANCH   2   3
ATOM      3  C   UNL     1      -9.025  10.923 -22.308  1.00  0.00     0.002 C 
BRANCH   3   4
ATOM      4  C   UNL     1      -8.320   9.705 -21.714  1.00  0.00     0.030 C 
BRANCH   4   5
ATOM      5  C   UNL     1      -7.524   8.893 -22.728  1.00  0.00     0.183 C 
BRANCH   5   6
ATOM      6  O   UNL     1      -6.233   9.480 -22.838  1.00  0.00    -0.265 OA
BRANCH   6   7
ATOM      7  S   UNL     1      -5.468   9.439 -24.297  1.00  0.00     0.348 S 
ATOM      8  O   UNL     1      -6.241  10.356 -25.122  1.00  0.00    -0.192 OA
ATOM      9  O   UNL     1      -5.398   8.030 -24.652  1.00  0.00    -0.192 OA
BRANCH   7  10
ATOM     10  C   UNL     1      -3.894  10.172 -23.723  1.00  0.00     0.459 C 
ATOM     11  F   UNL     1      -4.130  11.032 -22.663  1.00  0.00    -0.171 F 
ATOM     12  F   UNL     1      -3.077   9.195 -23.173  1.00  0.00    -0.171 F 
BRANCH  10  13
ATOM     13  S   UNL     1      -3.114  10.994 -25.130  1.00  0.00     0.179 S 
ATOM     14  O   UNL     1      -3.403  10.140 -26.285  1.00  0.00    -0.235 OA
ATOM     15  O   UNL     1      -1.685  11.022 -24.791  1.00  0.00    -0.235 OA
ATOM     16  O   UNL     1      -3.713  12.326 -25.205  1.00  0.00    -0.742 OA
ENDBRANCH  10  13
ENDBRANCH   7  10
ENDBRANCH   6   7
ENDBRANCH   5   6
ENDBRANCH   4   5
ENDBRANCH   3   4
ENDBRANCH   2   3
ENDBRANCH   1   2
BRANCH   1  17
ATOM     17  C   UNL     1      -8.649  13.066 -20.080  1.00  0.00     0.006 C 
BRANCH  17  18
ATOM     18  C   UNL     1      -7.564  12.799 -19.024  1.00  0.00     0.084 C 
BRANCH  18  19
ATOM     19  C   UNL     1      -6.321  12.114 -19.598  1.00  0.00     0.316 C 
ATOM     20  F   UNL     1      -6.472  10.773 -19.455  1.00  0.00    -0.200 F 
ATOM     21  F   UNL     1      -6.294  12.332 -20.947  1.00  0.00    -0.200 F 
BRANCH  19  22
ATOM     22  C   UNL     1      -4.978  12.582 -19.016  1.00  0.00     0.378 C 
ATOM     23  F   UNL     1      -5.242  13.333 -17.901  1.00  0.00    -0.193 F 
ATOM     24  F   UNL     1      -4.377  13.434 -19.895  1.00  0.00    -0.193 F 
BRANCH  22  25
ATOM     25  C   UNL     1      -3.987  11.486 -18.641  1.00  0.00     0.384 C 
ATOM     26  F   UNL     1      -3.464  10.959 -19.786  1.00  0.00    -0.192 F 
ATOM     27  F   UNL     1      -4.648  10.443 -18.057  1.00  0.00    -0.192 F 
BRANCH  25  28
ATOM     28  C   UNL     1      -2.858  11.914 -17.705  1.00  0.00     0.387 C 
ATOM     29  F   UNL     1      -2.472  13.193 -17.928  1.00  0.00    -0.192 F 
ATOM     30  F   UNL     1      -1.750  11.159 -18.028  1.00  0.00    -0.192 F 
BRANCH  28  31
ATOM     31  C   UNL     1      -3.099  11.691 -16.219  1.00  0.00     0.409 C 
ATOM     32  F   UNL     1      -2.844  10.371 -15.937  1.00  0.00    -0.189 F 
ATOM     33  F   UNL     1      -4.424  11.860 -15.929  1.00  0.00    -0.189 F 
BRANCH  31  34
ATOM     34  C   UNL     1      -2.254  12.554 -15.309  1.00  0.00     0.460 C 
ATOM     35  F   UNL     1      -1.108  12.943 -15.919  1.00  0.00    -0.165 F 
ATOM     36  F   UNL     1      -2.903  13.679 -14.937  1.00  0.00    -0.165 F 
ATOM     37  F   UNL     1      -1.888  11.899 -14.185  1.00  0.00    -0.165 F 
ENDBRANCH  31  34
ENDBRANCH  28  31
ENDBRANCH  25  28
ENDBRANCH  22  25
ENDBRANCH  19  22
ENDBRANCH  18  19
ENDBRANCH  17  18
ENDBRANCH   1  17
TORSDOF 16
ENDMDL
MODEL 13
REMARK VINA RESULT:    -6.046      4.730      6.574
REMARK INTER + INTRA:         -13.857
REMARK INTER:                 -12.640
REMARK INTRA:                  -1.217
REMARK UNBOUND:                -2.155
REMARK SMILES O=S(=O)([O-])C(F)(F)S(=O)(=O)OCCCCCCCC(F)(F)C(F)(F)C(F)(F)C(F)(F)C(F)(F)C(F)(F)F
REMARK SMILES IDX 16 1 15 2 14 3 13 4 12 5 11 6 8 7 9 8 10 9 5 10 6 11 7 12
REMARK SMILES IDX 2 13 1 14 3 15 4 16 17 17 18 18 19 19 20 20 21 21 22 22
REMARK SMILES IDX 23 23 24 24 25 25 26 26 27 27 28 28 29 29 30 30 31 31 32 32
REMARK SMILES IDX 33 33 34 34 35 35 36 36 37 37
REMARK H PARENT
ROOT
ATOM      1  C   UNL     1      -4.461  11.333 -23.350  1.00  0.00     0.000 C 
ENDROOT
BRANCH   1   2
ATOM      2  C   UNL     1      -3.386  10.244 -23.430  1.00  0.00     0.000 C 
BRANCH   2   3
ATOM      3  C   UNL     1      -3.645   9.112 -24.429  1.00  0.00     0.002 C 
BRANCH   3   4
ATOM      4  C   UNL     1      -4.639   8.042 -23.983  1.00  0.00     0.030 C 
BRANCH   4   5
ATOM      5  C   UNL     1      -6.054   8.252 -24.506  1.00  0.00     0.183 C 
BRANCH   5   6
ATOM      6  O   UNL     1      -6.859   8.691 -23.418  1.00  0.00    -0.265 OA
BRANCH   6   7
ATOM      7  S   UNL     1      -8.495   8.532 -23.530  1.00  0.00     0.348 S 
ATOM      8  O   UNL     1      -8.849   7.737 -22.363  1.00  0.00    -0.192 OA
ATOM      9  O   UNL     1      -8.737   8.005 -24.864  1.00  0.00    -0.192 OA
BRANCH   7  10
ATOM     10  C   UNL     1      -8.889  10.305 -23.314  1.00  0.00     0.459 C 
ATOM     11  F   UNL     1      -7.820  11.081 -23.728  1.00  0.00    -0.171 F 
ATOM     12  F   UNL     1      -9.914  10.680 -24.171  1.00  0.00    -0.171 F 
BRANCH  10  13
ATOM     13  S   UNL     1      -9.321  10.575 -21.581  1.00  0.00     0.179 S 
ATOM     14  O   UNL     1      -9.494  12.023 -21.448  1.00  0.00    -0.235 OA
ATOM     15  O   UNL     1      -8.162  10.072 -20.833  1.00  0.00    -0.235 OA
ATOM     16  O   UNL     1     -10.539   9.801 -21.341  1.00  0.00    -0.742 OA
ENDBRANCH  10  13
ENDBRANCH   7  10
ENDBRANCH   6   7
ENDBRANCH   5   6
ENDBRANCH   4   5
ENDBRANCH   3   4
ENDBRANCH   2   3
ENDBRANCH   1   2
BRANCH   1  17
ATOM     17  C   UNL     1      -5.104  11.457 -21.965  1.00  0.00     0.006 C 
BRANCH  17  18
ATOM     18  C   UNL     1      -4.139  11.090 -20.826  1.00  0.00     0.084 C 
BRANCH  18  19
ATOM     19  C   UNL     1      -4.436  11.836 -19.522  1.00  0.00     0.316 C 
ATOM     20  F   UNL     1      -4.144  13.148 -19.710  1.00  0.00    -0.200 F 
ATOM     21  F   UNL     1      -5.783  11.793 -19.300  1.00  0.00    -0.200 F 
BRANCH  19  22
ATOM     22  C   UNL     1      -3.731  11.288 -18.271  1.00  0.00     0.378 C 
ATOM     23  F   UNL     1      -2.592  10.646 -18.677  1.00  0.00    -0.193 F 
ATOM     24  F   UNL     1      -4.510  10.325 -17.699  1.00  0.00    -0.193 F 
BRANCH  22  25
ATOM     25  C   UNL     1      -3.358  12.312 -17.205  1.00  0.00     0.384 C 
ATOM     26  F   UNL     1      -4.358  13.237 -17.118  1.00  0.00    -0.192 F 
ATOM     27  F   UNL     1      -2.267  13.028 -17.610  1.00  0.00    -0.192 F 
BRANCH  25  28
ATOM     28  C   UNL     1      -3.061  11.740 -15.820  1.00  0.00     0.387 C 
ATOM     29  F   UNL     1      -2.577  10.477 -15.886  1.00  0.00    -0.192 F 
ATOM     30  F   UNL     1      -4.267  11.612 -15.162  1.00  0.00    -0.192 F 
BRANCH  28  31
ATOM     31  C   UNL     1      -2.179  12.593 -14.919  1.00  0.00     0.409 C 
ATOM     32  F   UNL     1      -2.848  13.762 -14.647  1.00  0.00    -0.189 F 
ATOM     33  F   UNL     1      -1.057  12.982 -15.595  1.00  0.00    -0.189 F 
BRANCH  31  34
ATOM     34  C   UNL     1      -1.797  11.937 -13.611  1.00  0.00     0.460 C 
ATOM     35  F   UNL     1      -2.323  12.601 -12.552  1.00  0.00    -0.165 F 
ATOM     36  F   UNL     1      -2.243  10.664 -13.538  1.00  0.00    -0.165 F 
ATOM     37  F   UNL     1      -0.459  11.916 -13.426  1.00  0.00    -0.165 F 
ENDBRANCH  31  34
ENDBRANCH  28  31
ENDBRANCH  25  28
ENDBRANCH  22  25
ENDBRANCH  19  22
ENDBRANCH  18  19
ENDBRANCH  17  18
ENDBRANCH   1  17
TORSDOF 16
ENDMDL
MODEL 14
REMARK VINA RESULT:    -5.996      1.888      3.245
REMARK INTER + INTRA:         -13.760
REMARK INTER:                 -12.055
REMARK INTRA:                  -1.706
REMARK UNBOUND:                -2.155
REMARK SMILES O=S(=O)([O-])C(F)(F)S(=O)(=O)OCCCCCCCC(F)(F)C(F)(F)C(F)(F)C(F)(F)C(F)(F)C(F)(F)F
REMARK SMILES IDX 16 1 15 2 14 3 13 4 12 5 11 6 8 7 9 8 10 9 5 10 6 11 7 12
REMARK SMILES IDX 2 13 1 14 3 15 4 16 17 17 18 18 19 19 20 20 21 21 22 22
REMARK SMILES IDX 23 23 24 24 25 25 26 26 27 27 28 28 29 29 30 30 31 31 32 32
REMARK SMILES IDX 33 33 34 34 35 35 36 36 37 37
REMARK H PARENT
ROOT
ATOM      1  C   UNL     1      -6.722  14.653 -20.237  1.00  0.00     0.000 C 
ENDROOT
BRANCH   1   2
ATOM      2  C   UNL     1      -8.004  15.056 -19.502  1.00  0.00     0.000 C 
BRANCH   2   3
ATOM      3  C   UNL     1      -7.981  16.421 -18.806  1.00  0.00     0.002 C 
BRANCH   3   4
ATOM      4  C   UNL     1      -8.937  16.585 -17.625  1.00  0.00     0.030 C 
BRANCH   4   5
ATOM      5  C   UNL     1      -9.625  15.295 -17.200  1.00  0.00     0.183 C 
BRANCH   5   6
ATOM      6  O   UNL     1      -8.880  14.739 -16.124  1.00  0.00    -0.265 OA
BRANCH   6   7
ATOM      7  S   UNL     1      -9.547  13.511 -15.251  1.00  0.00     0.348 S 
ATOM      8  O   UNL     1     -10.928  13.468 -15.709  1.00  0.00    -0.192 OA
ATOM      9  O   UNL     1      -9.256  13.827 -13.861  1.00  0.00    -0.192 OA
BRANCH   7  10
ATOM     10  C   UNL     1      -8.530  12.172 -15.970  1.00  0.00     0.459 C 
ATOM     11  F   UNL     1      -8.053  12.555 -17.212  1.00  0.00    -0.171 F 
ATOM     12  F   UNL     1      -7.376  11.986 -15.222  1.00  0.00    -0.171 F 
BRANCH  10  13
ATOM     13  S   UNL     1      -9.541  10.676 -16.038  1.00  0.00     0.179 S 
ATOM     14  O   UNL     1      -8.591   9.577 -16.225  1.00  0.00    -0.235 OA
ATOM     15  O   UNL     1     -10.411  10.876 -17.205  1.00  0.00    -0.235 OA
ATOM     16  O   UNL     1     -10.276  10.625 -14.775  1.00  0.00    -0.742 OA
ENDBRANCH  10  13
ENDBRANCH   7  10
ENDBRANCH   6   7
ENDBRANCH   5   6
ENDBRANCH   4   5
ENDBRANCH   3   4
ENDBRANCH   2   3
ENDBRANCH   1   2
BRANCH   1  17
ATOM     17  C   UNL     1      -6.381  13.166 -20.101  1.00  0.00     0.006 C 
BRANCH  17  18
ATOM     18  C   UNL     1      -4.922  12.926 -19.682  1.00  0.00     0.084 C 
BRANCH  18  19
ATOM     19  C   UNL     1      -4.609  11.452 -19.408  1.00  0.00     0.316 C 
ATOM     20  F   UNL     1      -5.627  10.704 -19.906  1.00  0.00    -0.200 F 
ATOM     21  F   UNL     1      -3.511  11.102 -20.142  1.00  0.00    -0.200 F 
BRANCH  19  22
ATOM     22  C   UNL     1      -4.331  11.096 -17.939  1.00  0.00     0.378 C 
ATOM     23  F   UNL     1      -3.827   9.823 -17.903  1.00  0.00    -0.193 F 
ATOM     24  F   UNL     1      -5.511  11.040 -17.258  1.00  0.00    -0.193 F 
BRANCH  22  25
ATOM     25  C   UNL     1      -3.377  12.019 -17.191  1.00  0.00     0.384 C 
ATOM     26  F   UNL     1      -3.836  13.300 -17.293  1.00  0.00    -0.192 F 
ATOM     27  F   UNL     1      -2.164  12.041 -17.818  1.00  0.00    -0.192 F 
BRANCH  25  28
ATOM     28  C   UNL     1      -3.143  11.670 -15.722  1.00  0.00     0.387 C 
ATOM     29  F   UNL     1      -2.723  10.391 -15.565  1.00  0.00    -0.192 F 
ATOM     30  F   UNL     1      -4.368  11.710 -15.090  1.00  0.00    -0.192 F 
BRANCH  28  31
ATOM     31  C   UNL     1      -2.238  12.616 -14.945  1.00  0.00     0.409 C 
ATOM     32  F   UNL     1      -2.932  13.780 -14.716  1.00  0.00    -0.189 F 
ATOM     33  F   UNL     1      -1.176  12.990 -15.720  1.00  0.00    -0.189 F 
BRANCH  31  34
ATOM     34  C   UNL     1      -1.750  12.074 -13.621  1.00  0.00     0.460 C 
ATOM     35  F   UNL     1      -2.057  12.911 -12.599  1.00  0.00    -0.165 F 
ATOM     36  F   UNL     1      -2.308  10.878 -13.331  1.00  0.00    -0.165 F 
ATOM     37  F   UNL     1      -0.408  11.918 -13.600  1.00  0.00    -0.165 F 
ENDBRANCH  31  34
ENDBRANCH  28  31
ENDBRANCH  25  28
ENDBRANCH  22  25
ENDBRANCH  19  22
ENDBRANCH  18  19
ENDBRANCH  17  18
ENDBRANCH   1  17
TORSDOF 16
ENDMDL
MODEL 15
REMARK VINA RESULT:    -5.953      2.534      4.909
REMARK INTER + INTRA:         -13.677
REMARK INTER:                 -11.057
REMARK INTRA:                  -2.619
REMARK UNBOUND:                -2.155
REMARK SMILES O=S(=O)([O-])C(F)(F)S(=O)(=O)OCCCCCCCC(F)(F)C(F)(F)C(F)(F)C(F)(F)C(F)(F)C(F)(F)F
REMARK SMILES IDX 16 1 15 2 14 3 13 4 12 5 11 6 8 7 9 8 10 9 5 10 6 11 7 12
REMARK SMILES IDX 2 13 1 14 3 15 4 16 17 17 18 18 19 19 20 20 21 21 22 22
REMARK SMILES IDX 23 23 24 24 25 25 26 26 27 27 28 28 29 29 30 30 31 31 32 32
REMARK SMILES IDX 33 33 34 34 35 35 36 36 37 37
REMARK H PARENT
ROOT
ATOM      1  C   UNL     1     -12.091  11.475 -14.618  1.00  0.00     0.000 C 
ENDROOT
BRANCH   1   2
ATOM      2  C   UNL     1     -11.286  12.102 -13.475  1.00  0.00     0.000 C 
BRANCH   2   3
ATOM      3  C   UNL     1     -11.111  13.623 -13.530  1.00  0.00     0.002 C 
BRANCH   3   4
ATOM      4  C   UNL     1      -9.836  14.172 -12.890  1.00  0.00     0.030 C 
BRANCH   4   5
ATOM      5  C   UNL     1      -9.956  15.609 -12.402  1.00  0.00     0.183 C 
BRANCH   5   6
ATOM      6  O   UNL     1     -10.835  16.296 -13.284  1.00  0.00    -0.265 OA
BRANCH   6   7
ATOM      7  S   UNL     1     -10.275  17.623 -14.085  1.00  0.00     0.348 S 
ATOM      8  O   UNL     1      -9.117  18.037 -13.304  1.00  0.00    -0.192 OA
ATOM      9  O   UNL     1     -11.421  18.510 -14.204  1.00  0.00    -0.192 OA
BRANCH   7  10
ATOM     10  C   UNL     1      -9.805  16.752 -15.622  1.00  0.00     0.459 C 
ATOM     11  F   UNL     1      -8.642  16.028 -15.420  1.00  0.00    -0.171 F 
ATOM     12  F   UNL     1     -10.744  15.779 -15.933  1.00  0.00    -0.171 F 
BRANCH  10  13
ATOM     13  S   UNL     1      -9.644  17.982 -16.936  1.00  0.00     0.179 S 
ATOM     14  O   UNL     1      -9.047  19.155 -16.295  1.00  0.00    -0.235 OA
ATOM     15  O   UNL     1     -11.023  18.221 -17.383  1.00  0.00    -0.235 OA
ATOM     16  O   UNL     1      -8.805  17.369 -17.965  1.00  0.00    -0.742 OA
ENDBRANCH  10  13
ENDBRANCH   7  10
ENDBRANCH   6   7
ENDBRANCH   5   6
ENDBRANCH   4   5
ENDBRANCH   3   4
ENDBRANCH   2   3
ENDBRANCH   1   2
BRANCH   1  17
ATOM     17  C   UNL     1     -11.260  10.554 -15.517  1.00  0.00     0.006 C 
BRANCH  17  18
ATOM     18  C   UNL     1      -9.747  10.757 -15.340  1.00  0.00     0.084 C 
BRANCH  18  19
ATOM     19  C   UNL     1      -9.115  11.584 -16.463  1.00  0.00     0.316 C 
ATOM     20  F   UNL     1      -9.231  10.884 -17.620  1.00  0.00    -0.200 F 
ATOM     21  F   UNL     1      -9.867  12.709 -16.644  1.00  0.00    -0.200 F 
BRANCH  19  22
ATOM     22  C   UNL     1      -7.660  12.019 -16.226  1.00  0.00     0.378 C 
ATOM     23  F   UNL     1      -7.217  11.405 -15.085  1.00  0.00    -0.193 F 
ATOM     24  F   UNL     1      -7.626  13.355 -15.959  1.00  0.00    -0.193 F 
BRANCH  22  25
ATOM     25  C   UNL     1      -6.676  11.720 -17.352  1.00  0.00     0.384 C 
ATOM     26  F   UNL     1      -7.148  12.278 -18.505  1.00  0.00    -0.192 F 
ATOM     27  F   UNL     1      -6.654  10.378 -17.607  1.00  0.00    -0.192 F 
BRANCH  25  28
ATOM     28  C   UNL     1      -5.239  12.178 -17.106  1.00  0.00     0.387 C 
ATOM     29  F   UNL     1      -4.899  12.102 -15.798  1.00  0.00    -0.192 F 
ATOM     30  F   UNL     1      -5.182  13.525 -17.399  1.00  0.00    -0.192 F 
BRANCH  28  31
ATOM     31  C   UNL     1      -4.170  11.516 -17.965  1.00  0.00     0.409 C 
ATOM     32  F   UNL     1      -4.601  11.527 -19.269  1.00  0.00    -0.189 F 
ATOM     33  F   UNL     1      -4.066  10.192 -17.644  1.00  0.00    -0.189 F 
BRANCH  31  34
ATOM     34  C   UNL     1      -2.812  12.176 -17.896  1.00  0.00     0.460 C 
ATOM     35  F   UNL     1      -2.750  13.266 -18.701  1.00  0.00    -0.165 F 
ATOM     36  F   UNL     1      -2.518  12.594 -16.645  1.00  0.00    -0.165 F 
ATOM     37  F   UNL     1      -1.824  11.346 -18.296  1.00  0.00    -0.165 F 
ENDBRANCH  31  34
ENDBRANCH  28  31
ENDBRANCH  25  28
ENDBRANCH  22  25
ENDBRANCH  19  22
ENDBRANCH  18  19
ENDBRANCH  17  18
ENDBRANCH   1  17
TORSDOF 16
ENDMDL
MODEL 16
REMARK VINA RESULT:    -5.885      1.721      3.604
REMARK INTER + INTRA:         -13.545
REMARK INTER:                 -11.422
REMARK INTRA:                  -2.124
REMARK UNBOUND:                -2.155
REMARK SMILES O=S(=O)([O-])C(F)(F)S(=O)(=O)OCCCCCCCC(F)(F)C(F)(F)C(F)(F)C(F)(F)C(F)(F)C(F)(F)F
REMARK SMILES IDX 16 1 15 2 14 3 13 4 12 5 11 6 8 7 9 8 10 9 5 10 6 11 7 12
REMARK SMILES IDX 2 13 1 14 3 15 4 16 17 17 18 18 19 19 20 20 21 21 22 22
REMARK SMILES IDX 23 23 24 24 25 25 26 26 27 27 28 28 29 29 30 30 31 31 32 32
REMARK SMILES IDX 33 33 34 34 35 35 36 36 37 37
REMARK H PARENT
ROOT
ATOM      1  C   UNL     1     -10.391  10.359 -16.457  1.00  0.00     0.000 C 
ENDROOT
BRANCH   1   2
ATOM      2  C   UNL     1     -11.473  11.141 -15.706  1.00  0.00     0.000 C 
BRANCH   2   3
ATOM      3  C   UNL     1     -11.254  11.317 -14.199  1.00  0.00     0.002 C 
BRANCH   3   4
ATOM      4  C   UNL     1     -12.489  11.702 -13.385  1.00  0.00     0.030 C 
BRANCH   4   5
ATOM      5  C   UNL     1     -12.408  13.084 -12.751  1.00  0.00     0.183 C 
BRANCH   5   6
ATOM      6  O   UNL     1     -12.212  14.030 -13.795  1.00  0.00    -0.265 OA
BRANCH   6   7
ATOM      7  S   UNL     1     -11.215  15.314 -13.522  1.00  0.00     0.348 S 
ATOM      8  O   UNL     1     -10.679  15.062 -12.192  1.00  0.00    -0.192 OA
ATOM      9  O   UNL     1     -12.036  16.492 -13.759  1.00  0.00    -0.192 OA
BRANCH   7  10
ATOM     10  C   UNL     1     -10.014  14.928 -14.845  1.00  0.00     0.459 C 
ATOM     11  F   UNL     1      -9.108  13.979 -14.401  1.00  0.00    -0.171 F 
ATOM     12  F   UNL     1     -10.649  14.298 -15.906  1.00  0.00    -0.171 F 
BRANCH  10  13
ATOM     13  S   UNL     1      -9.221  16.471 -15.350  1.00  0.00     0.179 S 
ATOM     14  O   UNL     1     -10.151  17.090 -16.298  1.00  0.00    -0.235 OA
ATOM     15  O   UNL     1      -7.967  16.046 -15.984  1.00  0.00    -0.235 OA
ATOM     16  O   UNL     1      -9.014  17.240 -14.124  1.00  0.00    -0.742 OA
ENDBRANCH  10  13
ENDBRANCH   7  10
ENDBRANCH   6   7
ENDBRANCH   5   6
ENDBRANCH   4   5
ENDBRANCH   3   4
ENDBRANCH   2   3
ENDBRANCH   1   2
BRANCH   1  17
ATOM     17  C   UNL     1      -9.947  11.030 -17.761  1.00  0.00     0.006 C 
BRANCH  17  18
ATOM     18  C   UNL     1      -8.764  11.992 -17.563  1.00  0.00     0.084 C 
BRANCH  18  19
ATOM     19  C   UNL     1      -7.402  11.301 -17.670  1.00  0.00     0.316 C 
ATOM     20  F   UNL     1      -6.772  11.420 -16.473  1.00  0.00    -0.200 F 
ATOM     21  F   UNL     1      -7.611   9.962 -17.837  1.00  0.00    -0.200 F 
BRANCH  19  22
ATOM     22  C   UNL     1      -6.502  11.787 -18.817  1.00  0.00     0.378 C 
ATOM     23  F   UNL     1      -6.599  13.151 -18.880  1.00  0.00    -0.193 F 
ATOM     24  F   UNL     1      -6.997  11.331 -20.003  1.00  0.00    -0.193 F 
BRANCH  22  25
ATOM     25  C   UNL     1      -5.028  11.408 -18.724  1.00  0.00     0.384 C 
ATOM     26  F   UNL     1      -4.565  11.140 -19.980  1.00  0.00    -0.192 F 
ATOM     27  F   UNL     1      -4.894  10.226 -18.053  1.00  0.00    -0.192 F 
BRANCH  25  28
ATOM     28  C   UNL     1      -4.126  12.440 -18.050  1.00  0.00     0.387 C 
ATOM     29  F   UNL     1      -4.816  13.241 -17.203  1.00  0.00    -0.192 F 
ATOM     30  F   UNL     1      -3.670  13.291 -19.034  1.00  0.00    -0.192 F 
BRANCH  28  31
ATOM     31  C   UNL     1      -2.885  11.893 -17.358  1.00  0.00     0.409 C 
ATOM     32  F   UNL     1      -1.884  12.827 -17.475  1.00  0.00    -0.189 F 
ATOM     33  F   UNL     1      -2.419  10.798 -18.029  1.00  0.00    -0.189 F 
BRANCH  31  34
ATOM     34  C   UNL     1      -3.074  11.565 -15.895  1.00  0.00     0.460 C 
ATOM     35  F   UNL     1      -2.694  10.293 -15.619  1.00  0.00    -0.165 F 
ATOM     36  F   UNL     1      -2.344  12.376 -15.099  1.00  0.00    -0.165 F 
ATOM     37  F   UNL     1      -4.366  11.670 -15.515  1.00  0.00    -0.165 F 
ENDBRANCH  31  34
ENDBRANCH  28  31
ENDBRANCH  25  28
ENDBRANCH  22  25
ENDBRANCH  19  22
ENDBRANCH  18  19
ENDBRANCH  17  18
ENDBRANCH   1  17
TORSDOF 16
ENDMDL
MODEL 17
REMARK VINA RESULT:    -5.884      5.205      7.298
REMARK INTER + INTRA:         -13.543
REMARK INTER:                 -11.919
REMARK INTRA:                  -1.624
REMARK UNBOUND:                -2.155
REMARK SMILES O=S(=O)([O-])C(F)(F)S(=O)(=O)OCCCCCCCC(F)(F)C(F)(F)C(F)(F)C(F)(F)C(F)(F)C(F)(F)F
REMARK SMILES IDX 16 1 15 2 14 3 13 4 12 5 11 6 8 7 9 8 10 9 5 10 6 11 7 12
REMARK SMILES IDX 2 13 1 14 3 15 4 16 17 17 18 18 19 19 20 20 21 21 22 22
REMARK SMILES IDX 23 23 24 24 25 25 26 26 27 27 28 28 29 29 30 30 31 31 32 32
REMARK SMILES IDX 33 33 34 34 35 35 36 36 37 37
REMARK H PARENT
ROOT
ATOM      1  C   UNL     1      -4.109  11.387 -23.893  1.00  0.00     0.000 C 
ENDROOT
BRANCH   1   2
ATOM      2  C   UNL     1      -3.625  10.131 -24.625  1.00  0.00     0.000 C 
BRANCH   2   3
ATOM      3  C   UNL     1      -3.802   8.805 -23.878  1.00  0.00     0.002 C 
BRANCH   3   4
ATOM      4  C   UNL     1      -4.732   7.787 -24.536  1.00  0.00     0.030 C 
BRANCH   4   5
ATOM      5  C   UNL     1      -5.729   8.397 -25.512  1.00  0.00     0.183 C 
BRANCH   5   6
ATOM      6  O   UNL     1      -6.634   9.199 -24.764  1.00  0.00    -0.265 OA
BRANCH   6   7
ATOM      7  S   UNL     1      -8.209   8.726 -24.660  1.00  0.00     0.348 S 
ATOM      8  O   UNL     1      -8.201   7.368 -25.185  1.00  0.00    -0.192 OA
ATOM      9  O   UNL     1      -8.966   9.762 -25.345  1.00  0.00    -0.192 OA
BRANCH   7  10
ATOM     10  C   UNL     1      -8.315   8.768 -22.835  1.00  0.00     0.459 C 
ATOM     11  F   UNL     1      -8.933   7.619 -22.370  1.00  0.00    -0.171 F 
ATOM     12  F   UNL     1      -7.047   8.704 -22.275  1.00  0.00    -0.171 F 
BRANCH  10  13
ATOM     13  S   UNL     1      -9.191  10.275 -22.359  1.00  0.00     0.179 S 
ATOM     14  O   UNL     1     -10.538  10.130 -22.913  1.00  0.00    -0.235 OA
ATOM     15  O   UNL     1      -8.430  11.357 -22.998  1.00  0.00    -0.235 OA
ATOM     16  O   UNL     1      -9.146  10.327 -20.898  1.00  0.00    -0.742 OA
ENDBRANCH  10  13
ENDBRANCH   7  10
ENDBRANCH   6   7
ENDBRANCH   5   6
ENDBRANCH   4   5
ENDBRANCH   3   4
ENDBRANCH   2   3
ENDBRANCH   1   2
BRANCH   1  17
ATOM     17  C   UNL     1      -4.734  11.094 -22.526  1.00  0.00     0.006 C 
BRANCH  17  18
ATOM     18  C   UNL     1      -5.313  12.351 -21.855  1.00  0.00     0.084 C 
BRANCH  18  19
ATOM     19  C   UNL     1      -5.826  12.092 -20.435  1.00  0.00     0.316 C 
ATOM     20  F   UNL     1      -7.050  12.666 -20.316  1.00  0.00    -0.200 F 
ATOM     21  F   UNL     1      -6.040  10.751 -20.292  1.00  0.00    -0.200 F 
BRANCH  19  22
ATOM     22  C   UNL     1      -4.892  12.547 -19.301  1.00  0.00     0.378 C 
ATOM     23  F   UNL     1      -5.671  13.021 -18.280  1.00  0.00    -0.193 F 
ATOM     24  F   UNL     1      -4.155  13.613 -19.724  1.00  0.00    -0.193 F 
BRANCH  22  25
ATOM     25  C   UNL     1      -3.947  11.490 -18.742  1.00  0.00     0.384 C 
ATOM     26  F   UNL     1      -3.345  10.846 -19.784  1.00  0.00    -0.192 F 
ATOM     27  F   UNL     1      -4.664  10.515 -18.108  1.00  0.00    -0.192 F 
BRANCH  25  28
ATOM     28  C   UNL     1      -2.887  12.005 -17.770  1.00  0.00     0.387 C 
ATOM     29  F   UNL     1      -2.586  13.307 -17.992  1.00  0.00    -0.192 F 
ATOM     30  F   UNL     1      -1.717  11.330 -18.044  1.00  0.00    -0.192 F 
BRANCH  28  31
ATOM     31  C   UNL     1      -3.168  11.777 -16.291  1.00  0.00     0.409 C 
ATOM     32  F   UNL     1      -3.018  10.437 -16.029  1.00  0.00    -0.189 F 
ATOM     33  F   UNL     1      -4.480  12.042 -16.018  1.00  0.00    -0.189 F 
BRANCH  31  34
ATOM     34  C   UNL     1      -2.274  12.558 -15.355  1.00  0.00     0.460 C 
ATOM     35  F   UNL     1      -1.139  12.963 -15.976  1.00  0.00    -0.165 F 
ATOM     36  F   UNL     1      -2.884  13.669 -14.886  1.00  0.00    -0.165 F 
ATOM     37  F   UNL     1      -1.888  11.821 -14.291  1.00  0.00    -0.165 F 
ENDBRANCH  31  34
ENDBRANCH  28  31
ENDBRANCH  25  28
ENDBRANCH  22  25
ENDBRANCH  19  22
ENDBRANCH  18  19
ENDBRANCH  17  18
ENDBRANCH   1  17
TORSDOF 16
ENDMDL
MODEL 18
REMARK VINA RESULT:    -5.834      5.169      7.001
REMARK INTER + INTRA:         -13.447
REMARK INTER:                 -12.719
REMARK INTRA:                  -0.728
REMARK UNBOUND:                -2.155
REMARK SMILES O=S(=O)([O-])C(F)(F)S(=O)(=O)OCCCCCCCC(F)(F)C(F)(F)C(F)(F)C(F)(F)C(F)(F)C(F)(F)F
REMARK SMILES IDX 16 1 15 2 14 3 13 4 12 5 11 6 8 7 9 8 10 9 5 10 6 11 7 12
REMARK SMILES IDX 2 13 1 14 3 15 4 16 17 17 18 18 19 19 20 20 21 21 22 22
REMARK SMILES IDX 23 23 24 24 25 25 26 26 27 27 28 28 29 29 30 30 31 31 32 32
REMARK SMILES IDX 33 33 34 34 35 35 36 36 37 37
REMARK H PARENT
ROOT
ATOM      1  C   UNL     1      -6.574  13.525 -18.737  1.00  0.00     0.000 C 
ENDROOT
BRANCH   1   2
ATOM      2  C   UNL     1      -7.567  12.603 -18.022  1.00  0.00     0.000 C 
BRANCH   2   3
ATOM      3  C   UNL     1      -8.571  11.870 -18.919  1.00  0.00     0.002 C 
BRANCH   3   4
ATOM      4  C   UNL     1      -8.527  12.230 -20.403  1.00  0.00     0.030 C 
BRANCH   4   5
ATOM      5  C   UNL     1      -8.101  11.081 -21.308  1.00  0.00     0.183 C 
BRANCH   5   6
ATOM      6  O   UNL     1      -6.841  11.417 -21.874  1.00  0.00    -0.265 OA
BRANCH   6   7
ATOM      7  S   UNL     1      -6.393  10.701 -23.290  1.00  0.00     0.348 S 
ATOM      8  O   UNL     1      -7.071  11.489 -24.309  1.00  0.00    -0.192 OA
ATOM      9  O   UNL     1      -6.721   9.294 -23.126  1.00  0.00    -0.192 OA
BRANCH   7  10
ATOM     10  C   UNL     1      -4.613  11.101 -23.168  1.00  0.00     0.459 C 
ATOM     11  F   UNL     1      -4.415  12.454 -23.385  1.00  0.00    -0.171 F 
ATOM     12  F   UNL     1      -4.162  10.911 -21.869  1.00  0.00    -0.171 F 
BRANCH  10  13
ATOM     13  S   UNL     1      -3.724  10.065 -24.351  1.00  0.00     0.179 S 
ATOM     14  O   UNL     1      -4.593   9.990 -25.528  1.00  0.00    -0.235 OA
ATOM     15  O   UNL     1      -3.582   8.772 -23.670  1.00  0.00    -0.235 OA
ATOM     16  O   UNL     1      -2.445  10.731 -24.593  1.00  0.00    -0.742 OA
ENDBRANCH  10  13
ENDBRANCH   7  10
ENDBRANCH   6   7
ENDBRANCH   5   6
ENDBRANCH   4   5
ENDBRANCH   3   4
ENDBRANCH   2   3
ENDBRANCH   1   2
BRANCH   1  17
ATOM     17  C   UNL     1      -5.270  12.827 -19.136  1.00  0.00     0.006 C 
BRANCH  17  18
ATOM     18  C   UNL     1      -5.024  11.530 -18.347  1.00  0.00     0.084 C 
BRANCH  18  19
ATOM     19  C   UNL     1      -3.543  11.151 -18.262  1.00  0.00     0.316 C 
ATOM     20  F   UNL     1      -3.461   9.842 -17.912  1.00  0.00    -0.200 F 
ATOM     21  F   UNL     1      -3.007  11.223 -19.516  1.00  0.00    -0.200 F 
BRANCH  19  22
ATOM     22  C   UNL     1      -2.688  12.024 -17.330  1.00  0.00     0.378 C 
ATOM     23  F   UNL     1      -2.890  13.333 -17.677  1.00  0.00    -0.193 F 
ATOM     24  F   UNL     1      -1.367  11.783 -17.570  1.00  0.00    -0.193 F 
BRANCH  22  25
ATOM     25  C   UNL     1      -2.949  11.872 -15.836  1.00  0.00     0.384 C 
ATOM     26  F   UNL     1      -2.767  10.563 -15.492  1.00  0.00    -0.192 F 
ATOM     27  F   UNL     1      -4.266  12.114 -15.567  1.00  0.00    -0.192 F 
BRANCH  25  28
ATOM     28  C   UNL     1      -2.108  12.767 -14.927  1.00  0.00     0.387 C 
ATOM     29  F   UNL     1      -2.717  13.951 -14.677  1.00  0.00    -0.192 F 
ATOM     30  F   UNL     1      -0.969  13.106 -15.626  1.00  0.00    -0.192 F 
BRANCH  28  31
ATOM     31  C   UNL     1      -1.631  12.139 -13.625  1.00  0.00     0.409 C 
ATOM     32  F   UNL     1      -1.712  10.773 -13.754  1.00  0.00    -0.189 F 
ATOM     33  F   UNL     1      -2.495  12.445 -12.613  1.00  0.00    -0.189 F 
BRANCH  31  34
ATOM     34  C   UNL     1      -0.218  12.505 -13.232  1.00  0.00     0.460 C 
ATOM     35  F   UNL     1       0.684  11.648 -13.769  1.00  0.00    -0.165 F 
ATOM     36  F   UNL     1       0.116  13.744 -13.655  1.00  0.00    -0.165 F 
ATOM     37  F   UNL     1      -0.037  12.465 -11.894  1.00  0.00    -0.165 F 
ENDBRANCH  31  34
ENDBRANCH  28  31
ENDBRANCH  25  28
ENDBRANCH  22  25
ENDBRANCH  19  22
ENDBRANCH  18  19
ENDBRANCH  17  18
ENDBRANCH   1  17
TORSDOF 16
ENDMDL
MODEL 19
REMARK VINA RESULT:    -5.820      1.946      3.345
REMARK INTER + INTRA:         -13.419
REMARK INTER:                 -12.236
REMARK INTRA:                  -1.183
REMARK UNBOUND:                -2.155
REMARK SMILES O=S(=O)([O-])C(F)(F)S(=O)(=O)OCCCCCCCC(F)(F)C(F)(F)C(F)(F)C(F)(F)C(F)(F)C(F)(F)F
REMARK SMILES IDX 16 1 15 2 14 3 13 4 12 5 11 6 8 7 9 8 10 9 5 10 6 11 7 12
REMARK SMILES IDX 2 13 1 14 3 15 4 16 17 17 18 18 19 19 20 20 21 21 22 22
REMARK SMILES IDX 23 23 24 24 25 25 26 26 27 27 28 28 29 29 30 30 31 31 32 32
REMARK SMILES IDX 33 33 34 34 35 35 36 36 37 37
REMARK H PARENT
ROOT
ATOM      1  C   UNL     1      -8.784  12.176 -16.439  1.00  0.00     0.000 C 
ENDROOT
BRANCH   1   2
ATOM      2  C   UNL     1     -10.291  12.264 -16.177  1.00  0.00     0.000 C 
BRANCH   2   3
ATOM      3  C   UNL     1     -10.728  13.238 -15.077  1.00  0.00     0.002 C 
BRANCH   3   4
ATOM      4  C   UNL     1      -9.782  13.365 -13.883  1.00  0.00     0.030 C 
BRANCH   4   5
ATOM      5  C   UNL     1      -9.936  14.665 -13.106  1.00  0.00     0.183 C 
BRANCH   5   6
ATOM      6  O   UNL     1     -10.645  15.583 -13.929  1.00  0.00    -0.265 OA
BRANCH   6   7
ATOM      7  S   UNL     1     -10.161  17.159 -13.954  1.00  0.00     0.348 S 
ATOM      8  O   UNL     1      -9.307  17.280 -12.781  1.00  0.00    -0.192 OA
ATOM      9  O   UNL     1     -11.390  17.934 -14.037  1.00  0.00    -0.192 OA
BRANCH   7  10
ATOM     10  C   UNL     1      -9.204  17.055 -15.508  1.00  0.00     0.459 C 
ATOM     11  F   UNL     1      -8.381  15.942 -15.484  1.00  0.00    -0.171 F 
ATOM     12  F   UNL     1     -10.048  16.812 -16.582  1.00  0.00    -0.171 F 
BRANCH  10  13
ATOM     13  S   UNL     1      -8.287  18.600 -15.705  1.00  0.00     0.179 S 
ATOM     14  O   UNL     1      -9.199  19.651 -15.247  1.00  0.00    -0.235 OA
ATOM     15  O   UNL     1      -8.010  18.679 -17.144  1.00  0.00    -0.235 OA
ATOM     16  O   UNL     1      -7.078  18.460 -14.893  1.00  0.00    -0.742 OA
ENDBRANCH  10  13
ENDBRANCH   7  10
ENDBRANCH   6   7
ENDBRANCH   5   6
ENDBRANCH   4   5
ENDBRANCH   3   4
ENDBRANCH   2   3
ENDBRANCH   1   2
BRANCH   1  17
ATOM     17  C   UNL     1      -8.420  11.257 -17.609  1.00  0.00     0.006 C 
BRANCH  17  18
ATOM     18  C   UNL     1      -6.939  10.843 -17.602  1.00  0.00     0.084 C 
BRANCH  18  19
ATOM     19  C   UNL     1      -6.201  11.230 -18.886  1.00  0.00     0.316 C 
ATOM     20  F   UNL     1      -6.631  10.415 -19.884  1.00  0.00    -0.200 F 
ATOM     21  F   UNL     1      -6.597  12.485 -19.249  1.00  0.00    -0.200 F 
BRANCH  19  22
ATOM     22  C   UNL     1      -4.666  11.225 -18.795  1.00  0.00     0.378 C 
ATOM     23  F   UNL     1      -4.170  11.096 -20.064  1.00  0.00    -0.193 F 
ATOM     24  F   UNL     1      -4.258  10.107 -18.129  1.00  0.00    -0.193 F 
BRANCH  22  25
ATOM     25  C   UNL     1      -4.026  12.444 -18.143  1.00  0.00     0.384 C 
ATOM     26  F   UNL     1      -4.975  13.099 -17.413  1.00  0.00    -0.192 F 
ATOM     27  F   UNL     1      -3.656  13.344 -19.103  1.00  0.00    -0.192 F 
BRANCH  25  28
ATOM     28  C   UNL     1      -2.807  12.157 -17.269  1.00  0.00     0.387 C 
ATOM     29  F   UNL     1      -1.905  13.168 -17.307  1.00  0.00    -0.192 F 
ATOM     30  F   UNL     1      -2.145  11.084 -17.827  1.00  0.00    -0.192 F 
BRANCH  28  31
ATOM     31  C   UNL     1      -3.095  11.769 -15.825  1.00  0.00     0.409 C 
ATOM     32  F   UNL     1      -2.818  10.431 -15.678  1.00  0.00    -0.189 F 
ATOM     33  F   UNL     1      -4.433  11.878 -15.570  1.00  0.00    -0.189 F 
BRANCH  31  34
ATOM     34  C   UNL     1      -2.305  12.544 -14.796  1.00  0.00     0.460 C 
ATOM     35  F   UNL     1      -2.806  13.792 -14.623  1.00  0.00    -0.165 F 
ATOM     36  F   UNL     1      -2.324  11.941 -13.587  1.00  0.00    -0.165 F 
ATOM     37  F   UNL     1      -1.012  12.697 -15.159  1.00  0.00    -0.165 F 
ENDBRANCH  31  34
ENDBRANCH  28  31
ENDBRANCH  25  28
ENDBRANCH  22  25
ENDBRANCH  19  22
ENDBRANCH  18  19
ENDBRANCH  17  18
ENDBRANCH   1  17
TORSDOF 16
ENDMDL
MODEL 20
REMARK VINA RESULT:    -5.754      1.809      2.805
REMARK INTER + INTRA:         -13.291
REMARK INTER:                 -12.033
REMARK INTRA:                  -1.259
REMARK UNBOUND:                -2.155
REMARK SMILES O=S(=O)([O-])C(F)(F)S(=O)(=O)OCCCCCCCC(F)(F)C(F)(F)C(F)(F)C(F)(F)C(F)(F)C(F)(F)F
REMARK SMILES IDX 16 1 15 2 14 3 13 4 12 5 11 6 8 7 9 8 10 9 5 10 6 11 7 12
REMARK SMILES IDX 2 13 1 14 3 15 4 16 17 17 18 18 19 19 20 20 21 21 22 22
REMARK SMILES IDX 23 23 24 24 25 25 26 26 27 27 28 28 29 29 30 30 31 31 32 32
REMARK SMILES IDX 33 33 34 34 35 35 36 36 37 37
REMARK H PARENT
ROOT
ATOM      1  C   UNL     1      -9.409  12.371 -18.601  1.00  0.00     0.000 C 
ENDROOT
BRANCH   1   2
ATOM      2  C   UNL     1      -8.709  11.401 -17.643  1.00  0.00     0.000 C 
BRANCH   2   3
ATOM      3  C   UNL     1      -9.203  11.412 -16.193  1.00  0.00     0.002 C 
BRANCH   3   4
ATOM      4  C   UNL     1      -8.972  12.709 -15.419  1.00  0.00     0.030 C 
BRANCH   4   5
ATOM      5  C   UNL     1     -10.206  13.223 -14.688  1.00  0.00     0.183 C 
BRANCH   5   6
ATOM      6  O   UNL     1      -9.921  14.537 -14.226  1.00  0.00    -0.265 OA
BRANCH   6   7
ATOM      7  S   UNL     1     -10.896  15.775 -14.711  1.00  0.00     0.348 S 
ATOM      8  O   UNL     1     -12.122  15.570 -13.953  1.00  0.00    -0.192 OA
ATOM      9  O   UNL     1     -10.922  15.693 -16.163  1.00  0.00    -0.192 OA
BRANCH   7  10
ATOM     10  C   UNL     1      -9.869  17.125 -14.029  1.00  0.00     0.459 C 
ATOM     11  F   UNL     1     -10.675  18.176 -13.627  1.00  0.00    -0.171 F 
ATOM     12  F   UNL     1      -9.255  16.719 -12.853  1.00  0.00    -0.171 F 
BRANCH  10  13
ATOM     13  S   UNL     1      -8.667  17.606 -15.289  1.00  0.00     0.179 S 
ATOM     14  O   UNL     1      -9.441  18.320 -16.308  1.00  0.00    -0.235 OA
ATOM     15  O   UNL     1      -8.124  16.334 -15.781  1.00  0.00    -0.235 OA
ATOM     16  O   UNL     1      -7.671  18.431 -14.606  1.00  0.00    -0.742 OA
ENDBRANCH  10  13
ENDBRANCH   7  10
ENDBRANCH   6   7
ENDBRANCH   5   6
ENDBRANCH   4   5
ENDBRANCH   3   4
ENDBRANCH   2   3
ENDBRANCH   1   2
BRANCH   1  17
ATOM     17  C   UNL     1      -8.484  12.936 -19.683  1.00  0.00     0.006 C 
BRANCH  17  18
ATOM     18  C   UNL     1      -7.080  13.269 -19.151  1.00  0.00     0.084 C 
BRANCH  18  19
ATOM     19  C   UNL     1      -5.968  12.490 -19.859  1.00  0.00     0.316 C 
ATOM     20  F   UNL     1      -6.397  11.215 -20.044  1.00  0.00    -0.200 F 
ATOM     21  F   UNL     1      -5.813  13.005 -21.114  1.00  0.00    -0.200 F 
BRANCH  19  22
ATOM     22  C   UNL     1      -4.597  12.514 -19.164  1.00  0.00     0.378 C 
ATOM     23  F   UNL     1      -4.079  13.774 -19.301  1.00  0.00    -0.193 F 
ATOM     24  F   UNL     1      -3.738  11.691 -19.831  1.00  0.00    -0.193 F 
BRANCH  22  25
ATOM     25  C   UNL     1      -4.584  12.141 -17.686  1.00  0.00     0.384 C 
ATOM     26  F   UNL     1      -5.332  11.012 -17.514  1.00  0.00    -0.192 F 
ATOM     27  F   UNL     1      -5.236  13.096 -16.959  1.00  0.00    -0.192 F 
BRANCH  25  28
ATOM     28  C   UNL     1      -3.199  11.942 -17.072  1.00  0.00     0.387 C 
ATOM     29  F   UNL     1      -2.343  12.933 -17.418  1.00  0.00    -0.192 F 
ATOM     30  F   UNL     1      -2.658  10.807 -17.638  1.00  0.00    -0.192 F 
BRANCH  28  31
ATOM     31  C   UNL     1      -3.161  11.720 -15.566  1.00  0.00     0.409 C 
ATOM     32  F   UNL     1      -2.819  10.410 -15.335  1.00  0.00    -0.189 F 
ATOM     33  F   UNL     1      -4.416  11.850 -15.042  1.00  0.00    -0.189 F 
BRANCH  31  34
ATOM     34  C   UNL     1      -2.192  12.613 -14.824  1.00  0.00     0.460 C 
ATOM     35  F   UNL     1      -2.725  13.838 -14.593  1.00  0.00    -0.165 F 
ATOM     36  F   UNL     1      -1.854  12.098 -13.621  1.00  0.00    -0.165 F 
ATOM     37  F   UNL     1      -1.053  12.814 -15.521  1.00  0.00    -0.165 F 
ENDBRANCH  31  34
ENDBRANCH  28  31
ENDBRANCH  25  28
ENDBRANCH  22  25
ENDBRANCH  19  22
ENDBRANCH  18  19
ENDBRANCH  17  18
ENDBRANCH   1  17
TORSDOF 16
ENDMDL
