REMARK VINA RESULT:    -5.820      1.946      3.345
REMARK INTER + INTRA:         -13.419
REMARK INTER:                 -12.236
REMARK INTRA:                  -1.183
REMARK UNBOUND:                -2.155
REMARK SMILES O=S(=O)([O-])C(F)(F)S(=O)(=O)OCCCCCCCC(F)(F)C(F)(F)C(F)(F)C(F)(F)C(F)(F)C(F)(F)F
REMARK SMILES IDX 16 1 15 2 14 3 13 4 12 5 11 6 8 7 9 8 10 9 5 10 6 11 7 12
REMARK SMILES IDX 2 13 1 14 3 15 4 16 17 17 18 18 19 19 20 20 21 21 22 22
REMARK SMILES IDX 23 23 24 24 25 25 26 26 27 27 28 28 29 29 30 30 31 31 32 32
REMARK SMILES IDX 33 33 34 34 35 35 36 36 37 37
REMARK H PARENT
ROOT
ATOM      1  C   UNL     1      -8.784  12.176 -16.439  1.00  0.00     0.000 C 
ENDROOT
BRANCH   1   2
ATOM      2  C   UNL     1     -10.291  12.264 -16.177  1.00  0.00     0.000 C 
BRANCH   2   3
ATOM      3  C   UNL     1     -10.728  13.238 -15.077  1.00  0.00     0.002 C 
BRANCH   3   4
ATOM      4  C   UNL     1      -9.782  13.365 -13.883  1.00  0.00     0.030 C 
BRANCH   4   5
ATOM      5  C   UNL     1      -9.936  14.665 -13.106  1.00  0.00     0.183 C 
BRANCH   5   6
ATOM      6  O   UNL     1     -10.645  15.583 -13.929  1.00  0.00    -0.265 OA
BRANCH   6   7
ATOM      7  S   UNL     1     -10.161  17.159 -13.954  1.00  0.00     0.348 S 
ATOM      8  O   UNL     1      -9.307  17.280 -12.781  1.00  0.00    -0.192 OA
ATOM      9  O   UNL     1     -11.390  17.934 -14.037  1.00  0.00    -0.192 OA
BRANCH   7  10
ATOM     10  C   UNL     1      -9.204  17.055 -15.508  1.00  0.00     0.459 C 
ATOM     11  F   UNL     1      -8.381  15.942 -15.484  1.00  0.00    -0.171 F 
ATOM     12  F   UNL     1     -10.048  16.812 -16.582  1.00  0.00    -0.171 F 
BRANCH  10  13
ATOM     13  S   UNL     1      -8.287  18.600 -15.705  1.00  0.00     0.179 S 
ATOM     14  O   UNL     1      -9.199  19.651 -15.247  1.00  0.00    -0.235 OA
ATOM     15  O   UNL     1      -8.010  18.679 -17.144  1.00  0.00    -0.235 OA
ATOM     16  O   UNL     1      -7.078  18.460 -14.893  1.00  0.00    -0.742 OA
ENDBRANCH  10  13
ENDBRANCH   7  10
ENDBRANCH   6   7
ENDBRANCH   5   6
ENDBRANCH   4   5
ENDBRANCH   3   4
ENDBRANCH   2   3
ENDBRANCH   1   2
BRANCH   1  17
ATOM     17  C   UNL     1      -8.420  11.257 -17.609  1.00  0.00     0.006 C 
BRANCH  17  18
ATOM     18  C   UNL     1      -6.939  10.843 -17.602  1.00  0.00     0.084 C 
BRANCH  18  19
ATOM     19  C   UNL     1      -6.201  11.230 -18.886  1.00  0.00     0.316 C 
ATOM     20  F   UNL     1      -6.631  10.415 -19.884  1.00  0.00    -0.200 F 
ATOM     21  F   UNL     1      -6.597  12.485 -19.249  1.00  0.00    -0.200 F 
BRANCH  19  22
ATOM     22  C   UNL     1      -4.666  11.225 -18.795  1.00  0.00     0.378 C 
ATOM     23  F   UNL     1      -4.170  11.096 -20.064  1.00  0.00    -0.193 F 
ATOM     24  F   UNL     1      -4.258  10.107 -18.129  1.00  0.00    -0.193 F 
BRANCH  22  25
ATOM     25  C   UNL     1      -4.026  12.444 -18.143  1.00  0.00     0.384 C 
ATOM     26  F   UNL     1      -4.975  13.099 -17.413  1.00  0.00    -0.192 F 
ATOM     27  F   UNL     1      -3.656  13.344 -19.103  1.00  0.00    -0.192 F 
BRANCH  25  28
ATOM     28  C   UNL     1      -2.807  12.157 -17.269  1.00  0.00     0.387 C 
ATOM     29  F   UNL     1      -1.905  13.168 -17.307  1.00  0.00    -0.192 F 
ATOM     30  F   UNL     1      -2.145  11.084 -17.827  1.00  0.00    -0.192 F 
BRANCH  28  31
ATOM     31  C   UNL     1      -3.095  11.769 -15.825  1.00  0.00     0.409 C 
ATOM     32  F   UNL     1      -2.818  10.431 -15.678  1.00  0.00    -0.189 F 
ATOM     33  F   UNL     1      -4.433  11.878 -15.570  1.00  0.00    -0.189 F 
BRANCH  31  34
ATOM     34  C   UNL     1      -2.305  12.544 -14.796  1.00  0.00     0.460 C 
ATOM     35  F   UNL     1      -2.806  13.792 -14.623  1.00  0.00    -0.165 F 
ATOM     36  F   UNL     1      -2.324  11.941 -13.587  1.00  0.00    -0.165 F 
ATOM     37  F   UNL     1      -1.012  12.697 -15.159  1.00  0.00    -0.165 F 
ENDBRANCH  31  34
ENDBRANCH  28  31
ENDBRANCH  25  28
ENDBRANCH  22  25
ENDBRANCH  19  22
ENDBRANCH  18  19
ENDBRANCH  17  18
ENDBRANCH   1  17
TORSDOF 16
