REMARK VINA RESULT:    -6.046      4.730      6.574
REMARK INTER + INTRA:         -13.857
REMARK INTER:                 -12.640
REMARK INTRA:                  -1.217
REMARK UNBOUND:                -2.155
REMARK SMILES O=S(=O)([O-])C(F)(F)S(=O)(=O)OCCCCCCCC(F)(F)C(F)(F)C(F)(F)C(F)(F)C(F)(F)C(F)(F)F
REMARK SMILES IDX 16 1 15 2 14 3 13 4 12 5 11 6 8 7 9 8 10 9 5 10 6 11 7 12
REMARK SMILES IDX 2 13 1 14 3 15 4 16 17 17 18 18 19 19 20 20 21 21 22 22
REMARK SMILES IDX 23 23 24 24 25 25 26 26 27 27 28 28 29 29 30 30 31 31 32 32
REMARK SMILES IDX 33 33 34 34 35 35 36 36 37 37
REMARK H PARENT
ROOT
ATOM      1  C   UNL     1      -4.461  11.333 -23.350  1.00  0.00     0.000 C 
ENDROOT
BRANCH   1   2
ATOM      2  C   UNL     1      -3.386  10.244 -23.430  1.00  0.00     0.000 C 
BRANCH   2   3
ATOM      3  C   UNL     1      -3.645   9.112 -24.429  1.00  0.00     0.002 C 
BRANCH   3   4
ATOM      4  C   UNL     1      -4.639   8.042 -23.983  1.00  0.00     0.030 C 
BRANCH   4   5
ATOM      5  C   UNL     1      -6.054   8.252 -24.506  1.00  0.00     0.183 C 
BRANCH   5   6
ATOM      6  O   UNL     1      -6.859   8.691 -23.418  1.00  0.00    -0.265 OA
BRANCH   6   7
ATOM      7  S   UNL     1      -8.495   8.532 -23.530  1.00  0.00     0.348 S 
ATOM      8  O   UNL     1      -8.849   7.737 -22.363  1.00  0.00    -0.192 OA
ATOM      9  O   UNL     1      -8.737   8.005 -24.864  1.00  0.00    -0.192 OA
BRANCH   7  10
ATOM     10  C   UNL     1      -8.889  10.305 -23.314  1.00  0.00     0.459 C 
ATOM     11  F   UNL     1      -7.820  11.081 -23.728  1.00  0.00    -0.171 F 
ATOM     12  F   UNL     1      -9.914  10.680 -24.171  1.00  0.00    -0.171 F 
BRANCH  10  13
ATOM     13  S   UNL     1      -9.321  10.575 -21.581  1.00  0.00     0.179 S 
ATOM     14  O   UNL     1      -9.494  12.023 -21.448  1.00  0.00    -0.235 OA
ATOM     15  O   UNL     1      -8.162  10.072 -20.833  1.00  0.00    -0.235 OA
ATOM     16  O   UNL     1     -10.539   9.801 -21.341  1.00  0.00    -0.742 OA
ENDBRANCH  10  13
ENDBRANCH   7  10
ENDBRANCH   6   7
ENDBRANCH   5   6
ENDBRANCH   4   5
ENDBRANCH   3   4
ENDBRANCH   2   3
ENDBRANCH   1   2
BRANCH   1  17
ATOM     17  C   UNL     1      -5.104  11.457 -21.965  1.00  0.00     0.006 C 
BRANCH  17  18
ATOM     18  C   UNL     1      -4.139  11.090 -20.826  1.00  0.00     0.084 C 
BRANCH  18  19
ATOM     19  C   UNL     1      -4.436  11.836 -19.522  1.00  0.00     0.316 C 
ATOM     20  F   UNL     1      -4.144  13.148 -19.710  1.00  0.00    -0.200 F 
ATOM     21  F   UNL     1      -5.783  11.793 -19.300  1.00  0.00    -0.200 F 
BRANCH  19  22
ATOM     22  C   UNL     1      -3.731  11.288 -18.271  1.00  0.00     0.378 C 
ATOM     23  F   UNL     1      -2.592  10.646 -18.677  1.00  0.00    -0.193 F 
ATOM     24  F   UNL     1      -4.510  10.325 -17.699  1.00  0.00    -0.193 F 
BRANCH  22  25
ATOM     25  C   UNL     1      -3.358  12.312 -17.205  1.00  0.00     0.384 C 
ATOM     26  F   UNL     1      -4.358  13.237 -17.118  1.00  0.00    -0.192 F 
ATOM     27  F   UNL     1      -2.267  13.028 -17.610  1.00  0.00    -0.192 F 
BRANCH  25  28
ATOM     28  C   UNL     1      -3.061  11.740 -15.820  1.00  0.00     0.387 C 
ATOM     29  F   UNL     1      -2.577  10.477 -15.886  1.00  0.00    -0.192 F 
ATOM     30  F   UNL     1      -4.267  11.612 -15.162  1.00  0.00    -0.192 F 
BRANCH  28  31
ATOM     31  C   UNL     1      -2.179  12.593 -14.919  1.00  0.00     0.409 C 
ATOM     32  F   UNL     1      -2.848  13.762 -14.647  1.00  0.00    -0.189 F 
ATOM     33  F   UNL     1      -1.057  12.982 -15.595  1.00  0.00    -0.189 F 
BRANCH  31  34
ATOM     34  C   UNL     1      -1.797  11.937 -13.611  1.00  0.00     0.460 C 
ATOM     35  F   UNL     1      -2.323  12.601 -12.552  1.00  0.00    -0.165 F 
ATOM     36  F   UNL     1      -2.243  10.664 -13.538  1.00  0.00    -0.165 F 
ATOM     37  F   UNL     1      -0.459  11.916 -13.426  1.00  0.00    -0.165 F 
ENDBRANCH  31  34
ENDBRANCH  28  31
ENDBRANCH  25  28
ENDBRANCH  22  25
ENDBRANCH  19  22
ENDBRANCH  18  19
ENDBRANCH  17  18
ENDBRANCH   1  17
TORSDOF 16
