REMARK VINA RESULT:    -6.183      1.856      3.126
REMARK INTER + INTRA:         -14.121
REMARK INTER:                 -13.572
REMARK INTRA:                  -0.550
REMARK UNBOUND:                -2.155
REMARK SMILES O=S(=O)([O-])C(F)(F)S(=O)(=O)OCCCCCCCC(F)(F)C(F)(F)C(F)(F)C(F)(F)C(F)(F)C(F)(F)F
REMARK SMILES IDX 16 1 15 2 14 3 13 4 12 5 11 6 8 7 9 8 10 9 5 10 6 11 7 12
REMARK SMILES IDX 2 13 1 14 3 15 4 16 17 17 18 18 19 19 20 20 21 21 22 22
REMARK SMILES IDX 23 23 24 24 25 25 26 26 27 27 28 28 29 29 30 30 31 31 32 32
REMARK SMILES IDX 33 33 34 34 35 35 36 36 37 37
REMARK H PARENT
ROOT
ATOM      1  C   UNL     1      -7.919  11.050 -17.874  1.00  0.00     0.000 C 
ENDROOT
BRANCH   1   2
ATOM      2  C   UNL     1      -8.177  11.325 -16.389  1.00  0.00     0.000 C 
BRANCH   2   3
ATOM      3  C   UNL     1      -8.800  12.684 -16.053  1.00  0.00     0.002 C 
BRANCH   3   4
ATOM      4  C   UNL     1      -9.727  12.712 -14.838  1.00  0.00     0.030 C 
BRANCH   4   5
ATOM      5  C   UNL     1      -9.616  13.981 -14.003  1.00  0.00     0.183 C 
BRANCH   5   6
ATOM      6  O   UNL     1     -10.322  15.012 -14.682  1.00  0.00    -0.265 OA
BRANCH   6   7
ATOM      7  S   UNL     1     -10.106  16.571 -14.195  1.00  0.00     0.348 S 
ATOM      8  O   UNL     1      -9.445  16.445 -12.904  1.00  0.00    -0.192 OA
ATOM      9  O   UNL     1     -11.423  17.183 -14.276  1.00  0.00    -0.192 OA
BRANCH   7  10
ATOM     10  C   UNL     1      -8.948  17.045 -15.529  1.00  0.00     0.459 C 
ATOM     11  F   UNL     1      -7.972  16.074 -15.676  1.00  0.00    -0.171 F 
ATOM     12  F   UNL     1      -9.597  17.042 -16.756  1.00  0.00    -0.171 F 
BRANCH  10  13
ATOM     13  S   UNL     1      -8.266  18.669 -15.128  1.00  0.00     0.179 S 
ATOM     14  O   UNL     1      -9.014  19.122 -13.954  1.00  0.00    -0.235 OA
ATOM     15  O   UNL     1      -8.536  19.483 -16.320  1.00  0.00    -0.235 OA
ATOM     16  O   UNL     1      -6.839  18.460 -14.886  1.00  0.00    -0.742 OA
ENDBRANCH  10  13
ENDBRANCH   7  10
ENDBRANCH   6   7
ENDBRANCH   5   6
ENDBRANCH   4   5
ENDBRANCH   3   4
ENDBRANCH   2   3
ENDBRANCH   1   2
BRANCH   1  17
ATOM     17  C   UNL     1      -6.712  11.808 -18.435  1.00  0.00     0.006 C 
BRANCH  17  18
ATOM     18  C   UNL     1      -5.375  11.292 -17.879  1.00  0.00     0.084 C 
BRANCH  18  19
ATOM     19  C   UNL     1      -4.399  12.416 -17.517  1.00  0.00     0.316 C 
ATOM     20  F   UNL     1      -4.233  13.200 -18.613  1.00  0.00    -0.200 F 
ATOM     21  F   UNL     1      -4.995  13.219 -16.586  1.00  0.00    -0.200 F 
BRANCH  19  22
ATOM     22  C   UNL     1      -3.044  11.961 -16.954  1.00  0.00     0.378 C 
ATOM     23  F   UNL     1      -2.109  12.899 -17.300  1.00  0.00    -0.193 F 
ATOM     24  F   UNL     1      -2.658  10.813 -17.581  1.00  0.00    -0.193 F 
BRANCH  22  25
ATOM     25  C   UNL     1      -2.979  11.742 -15.448  1.00  0.00     0.384 C 
ATOM     26  F   UNL     1      -2.543  10.470 -15.209  1.00  0.00    -0.192 F 
ATOM     27  F   UNL     1      -4.238  11.774 -14.919  1.00  0.00    -0.192 F 
BRANCH  25  28
ATOM     28  C   UNL     1      -2.116  12.738 -14.675  1.00  0.00     0.387 C 
ATOM     29  F   UNL     1      -2.686  13.966 -14.618  1.00  0.00    -0.192 F 
ATOM     30  F   UNL     1      -0.960  12.929 -15.402  1.00  0.00    -0.192 F 
BRANCH  28  31
ATOM     31  C   UNL     1      -1.672  12.302 -13.286  1.00  0.00     0.409 C 
ATOM     32  F   UNL     1      -1.965  10.968 -13.142  1.00  0.00    -0.189 F 
ATOM     33  F   UNL     1      -2.426  12.929 -12.335  1.00  0.00    -0.189 F 
BRANCH  31  34
ATOM     34  C   UNL     1      -0.201  12.509 -13.003  1.00  0.00     0.460 C 
ATOM     35  F   UNL     1       0.571  11.722 -13.792  1.00  0.00    -0.165 F 
ATOM     36  F   UNL     1       0.180  13.786 -13.228  1.00  0.00    -0.165 F 
ATOM     37  F   UNL     1       0.118  12.204 -11.727  1.00  0.00    -0.165 F 
ENDBRANCH  31  34
ENDBRANCH  28  31
ENDBRANCH  25  28
ENDBRANCH  22  25
ENDBRANCH  19  22
ENDBRANCH  18  19
ENDBRANCH  17  18
ENDBRANCH   1  17
TORSDOF 16
