REMARK VINA RESULT:    -6.107      2.788      5.005
REMARK INTER + INTRA:         -13.974
REMARK INTER:                 -11.833
REMARK INTRA:                  -2.142
REMARK UNBOUND:                -2.155
REMARK SMILES O=S(=O)([O-])C(F)(F)S(=O)(=O)OCCCCCCCC(F)(F)C(F)(F)C(F)(F)C(F)(F)C(F)(F)C(F)(F)F
REMARK SMILES IDX 16 1 15 2 14 3 13 4 12 5 11 6 8 7 9 8 10 9 5 10 6 11 7 12
REMARK SMILES IDX 2 13 1 14 3 15 4 16 17 17 18 18 19 19 20 20 21 21 22 22
REMARK SMILES IDX 23 23 24 24 25 25 26 26 27 27 28 28 29 29 30 30 31 31 32 32
REMARK SMILES IDX 33 33 34 34 35 35 36 36 37 37
REMARK H PARENT
ROOT
ATOM      1  C   UNL     1      -9.424  14.028 -14.337  1.00  0.00     0.000 C 
ENDROOT
BRANCH   1   2
ATOM      2  C   UNL     1      -9.670  14.170 -12.832  1.00  0.00     0.000 C 
BRANCH   2   3
ATOM      3  C   UNL     1     -10.660  15.262 -12.411  1.00  0.00     0.002 C 
BRANCH   3   4
ATOM      4  C   UNL     1     -12.023  15.229 -13.100  1.00  0.00     0.030 C 
BRANCH   4   5
ATOM      5  C   UNL     1     -12.252  16.374 -14.078  1.00  0.00     0.183 C 
BRANCH   5   6
ATOM      6  O   UNL     1     -11.328  17.408 -13.761  1.00  0.00    -0.265 OA
BRANCH   6   7
ATOM      7  S   UNL     1     -10.771  18.371 -14.976  1.00  0.00     0.348 S 
ATOM      8  O   UNL     1     -11.355  19.673 -14.684  1.00  0.00    -0.192 OA
ATOM      9  O   UNL     1     -11.126  17.679 -16.205  1.00  0.00    -0.192 OA
BRANCH   7  10
ATOM     10  C   UNL     1      -9.004  18.279 -14.518  1.00  0.00     0.459 C 
ATOM     11  F   UNL     1      -8.872  18.259 -13.140  1.00  0.00    -0.171 F 
ATOM     12  F   UNL     1      -8.464  17.063 -14.913  1.00  0.00    -0.171 F 
BRANCH  10  13
ATOM     13  S   UNL     1      -8.153  19.678 -15.282  1.00  0.00     0.179 S 
ATOM     14  O   UNL     1      -8.747  19.809 -16.614  1.00  0.00    -0.235 OA
ATOM     15  O   UNL     1      -6.744  19.267 -15.330  1.00  0.00    -0.235 OA
ATOM     16  O   UNL     1      -8.389  20.824 -14.405  1.00  0.00    -0.742 OA
ENDBRANCH  10  13
ENDBRANCH   7  10
ENDBRANCH   6   7
ENDBRANCH   5   6
ENDBRANCH   4   5
ENDBRANCH   3   4
ENDBRANCH   2   3
ENDBRANCH   1   2
BRANCH   1  17
ATOM     17  C   UNL     1      -9.754  12.635 -14.881  1.00  0.00     0.006 C 
BRANCH  17  18
ATOM     18  C   UNL     1      -9.903  12.613 -16.411  1.00  0.00     0.084 C 
BRANCH  18  19
ATOM     19  C   UNL     1      -8.914  11.667 -17.099  1.00  0.00     0.316 C 
ATOM     20  F   UNL     1      -8.646  10.644 -16.247  1.00  0.00    -0.200 F 
ATOM     21  F   UNL     1      -9.541  11.092 -18.167  1.00  0.00    -0.200 F 
BRANCH  19  22
ATOM     22  C   UNL     1      -7.617  12.318 -17.604  1.00  0.00     0.378 C 
ATOM     23  F   UNL     1      -7.594  13.611 -17.156  1.00  0.00    -0.193 F 
ATOM     24  F   UNL     1      -7.655  12.403 -18.964  1.00  0.00    -0.193 F 
BRANCH  22  25
ATOM     25  C   UNL     1      -6.317  11.637 -17.192  1.00  0.00     0.384 C 
ATOM     26  F   UNL     1      -6.404  10.308 -17.493  1.00  0.00    -0.192 F 
ATOM     27  F   UNL     1      -6.184  11.671 -15.833  1.00  0.00    -0.192 F 
BRANCH  25  28
ATOM     28  C   UNL     1      -5.046  12.223 -17.805  1.00  0.00     0.387 C 
ATOM     29  F   UNL     1      -5.198  13.527 -18.140  1.00  0.00    -0.192 F 
ATOM     30  F   UNL     1      -4.837  11.582 -19.008  1.00  0.00    -0.192 F 
BRANCH  28  31
ATOM     31  C   UNL     1      -3.767  12.035 -17.001  1.00  0.00     0.409 C 
ATOM     32  F   UNL     1      -3.689  10.717 -16.622  1.00  0.00    -0.189 F 
ATOM     33  F   UNL     1      -3.845  12.731 -15.828  1.00  0.00    -0.189 F 
BRANCH  31  34
ATOM     34  C   UNL     1      -2.500  12.403 -17.740  1.00  0.00     0.460 C 
ATOM     35  F   UNL     1      -1.562  12.902 -16.898  1.00  0.00    -0.165 F 
ATOM     36  F   UNL     1      -1.949  11.334 -18.355  1.00  0.00    -0.165 F 
ATOM     37  F   UNL     1      -2.718  13.351 -18.678  1.00  0.00    -0.165 F 
ENDBRANCH  31  34
ENDBRANCH  28  31
ENDBRANCH  25  28
ENDBRANCH  22  25
ENDBRANCH  19  22
ENDBRANCH  18  19
ENDBRANCH  17  18
ENDBRANCH   1  17
TORSDOF 16
