REMARK VINA RESULT:    -6.265      0.926      1.892
REMARK INTER + INTRA:         -14.280
REMARK INTER:                 -12.798
REMARK INTRA:                  -1.482
REMARK UNBOUND:                -2.155
REMARK SMILES O=S(=O)([O-])C(F)(F)S(=O)(=O)OCCCCCCCC(F)(F)C(F)(F)C(F)(F)C(F)(F)C(F)(F)C(F)(F)F
REMARK SMILES IDX 16 1 15 2 14 3 13 4 12 5 11 6 8 7 9 8 10 9 5 10 6 11 7 12
REMARK SMILES IDX 2 13 1 14 3 15 4 16 17 17 18 18 19 19 20 20 21 21 22 22
REMARK SMILES IDX 23 23 24 24 25 25 26 26 27 27 28 28 29 29 30 30 31 31 32 32
REMARK SMILES IDX 33 33 34 34 35 35 36 36 37 37
REMARK H PARENT
ROOT
ATOM      1  C   UNL     1      -8.547  12.965 -17.802  1.00  0.00     0.000 C 
ENDROOT
BRANCH   1   2
ATOM      2  C   UNL     1      -8.347  11.723 -16.928  1.00  0.00     0.000 C 
BRANCH   2   3
ATOM      3  C   UNL     1      -9.521  10.739 -16.877  1.00  0.00     0.002 C 
BRANCH   3   4
ATOM      4  C   UNL     1      -9.937  10.268 -15.484  1.00  0.00     0.030 C 
BRANCH   4   5
ATOM      5  C   UNL     1     -11.249  10.867 -14.993  1.00  0.00     0.183 C 
BRANCH   5   6
ATOM      6  O   UNL     1     -10.942  11.821 -13.985  1.00  0.00    -0.265 OA
BRANCH   6   7
ATOM      7  S   UNL     1     -11.433  13.380 -14.194  1.00  0.00     0.348 S 
ATOM      8  O   UNL     1     -12.627  13.483 -13.368  1.00  0.00    -0.192 OA
ATOM      9  O   UNL     1     -11.533  13.558 -15.634  1.00  0.00    -0.192 OA
BRANCH   7  10
ATOM     10  C   UNL     1      -9.975  14.161 -13.416  1.00  0.00     0.459 C 
ATOM     11  F   UNL     1      -9.868  13.756 -12.096  1.00  0.00    -0.171 F 
ATOM     12  F   UNL     1      -8.806  13.689 -13.995  1.00  0.00    -0.171 F 
BRANCH  10  13
ATOM     13  S   UNL     1     -10.140  15.952 -13.587  1.00  0.00     0.179 S 
ATOM     14  O   UNL     1      -9.340  16.303 -14.763  1.00  0.00    -0.235 OA
ATOM     15  O   UNL     1      -9.581  16.492 -12.342  1.00  0.00    -0.235 OA
ATOM     16  O   UNL     1     -11.571  16.215 -13.736  1.00  0.00    -0.742 OA
ENDBRANCH  10  13
ENDBRANCH   7  10
ENDBRANCH   6   7
ENDBRANCH   5   6
ENDBRANCH   4   5
ENDBRANCH   3   4
ENDBRANCH   2   3
ENDBRANCH   1   2
BRANCH   1  17
ATOM     17  C   UNL     1      -7.841  12.878 -19.158  1.00  0.00     0.006 C 
BRANCH  17  18
ATOM     18  C   UNL     1      -7.028  11.584 -19.324  1.00  0.00     0.084 C 
BRANCH  18  19
ATOM     19  C   UNL     1      -5.659  11.812 -19.971  1.00  0.00     0.316 C 
ATOM     20  F   UNL     1      -5.624  11.125 -21.142  1.00  0.00    -0.200 F 
ATOM     21  F   UNL     1      -5.563  13.129 -20.322  1.00  0.00    -0.200 F 
BRANCH  19  22
ATOM     22  C   UNL     1      -4.445  11.466 -19.093  1.00  0.00     0.378 C 
ATOM     23  F   UNL     1      -3.466  10.965 -19.908  1.00  0.00    -0.193 F 
ATOM     24  F   UNL     1      -4.775  10.447 -18.249  1.00  0.00    -0.193 F 
BRANCH  22  25
ATOM     25  C   UNL     1      -3.859  12.609 -18.274  1.00  0.00     0.384 C 
ATOM     26  F   UNL     1      -4.864  13.199 -17.563  1.00  0.00    -0.192 F 
ATOM     27  F   UNL     1      -3.407  13.594 -19.106  1.00  0.00    -0.192 F 
BRANCH  25  28
ATOM     28  C   UNL     1      -2.718  12.224 -17.333  1.00  0.00     0.387 C 
ATOM     29  F   UNL     1      -1.743  13.165 -17.306  1.00  0.00    -0.192 F 
ATOM     30  F   UNL     1      -2.105  11.109 -17.865  1.00  0.00    -0.192 F 
BRANCH  28  31
ATOM     31  C   UNL     1      -3.119  11.846 -15.914  1.00  0.00     0.409 C 
ATOM     32  F   UNL     1      -2.927  10.494 -15.760  1.00  0.00    -0.189 F 
ATOM     33  F   UNL     1      -4.462  12.029 -15.743  1.00  0.00    -0.189 F 
BRANCH  31  34
ATOM     34  C   UNL     1      -2.354  12.571 -14.830  1.00  0.00     0.460 C 
ATOM     35  F   UNL     1      -2.486  11.952 -13.631  1.00  0.00    -0.165 F 
ATOM     36  F   UNL     1      -1.031  12.627 -15.101  1.00  0.00    -0.165 F 
ATOM     37  F   UNL     1      -2.793  13.837 -14.660  1.00  0.00    -0.165 F 
ENDBRANCH  31  34
ENDBRANCH  28  31
ENDBRANCH  25  28
ENDBRANCH  22  25
ENDBRANCH  19  22
ENDBRANCH  18  19
ENDBRANCH  17  18
ENDBRANCH   1  17
TORSDOF 16
