REMARK VINA RESULT:    -6.718      6.106      7.705
REMARK INTER + INTRA:         -15.156
REMARK INTER:                 -12.941
REMARK INTRA:                  -2.215
REMARK UNBOUND:                -2.155
REMARK SMILES O=S(=O)([O-])C(F)(F)S(=O)(=O)OCCCCCCCC(F)(F)C(F)(F)C(F)(F)C(F)(F)C(F)(F)C(F)(F)F
REMARK SMILES IDX 16 1 15 2 14 3 13 4 12 5 11 6 8 7 9 8 10 9 5 10 6 11 7 12
REMARK SMILES IDX 2 13 1 14 3 15 4 16 17 17 18 18 19 19 20 20 21 21 22 22
REMARK SMILES IDX 23 23 24 24 25 25 26 26 27 27 28 28 29 29 30 30 31 31 32 32
REMARK SMILES IDX 33 33 34 34 35 35 36 36 37 37
REMARK H PARENT
ROOT
ATOM      1  C   UNL     1      -6.708  13.375 -21.206  1.00  0.00     0.000 C 
ENDROOT
BRANCH   1   2
ATOM      2  C   UNL     1      -6.340  14.860 -21.288  1.00  0.00     0.000 C 
BRANCH   2   3
ATOM      3  C   UNL     1      -6.467  15.510 -22.670  1.00  0.00     0.002 C 
BRANCH   3   4
ATOM      4  C   UNL     1      -5.182  15.583 -23.494  1.00  0.00     0.030 C 
BRANCH   4   5
ATOM      5  C   UNL     1      -5.289  14.935 -24.869  1.00  0.00     0.183 C 
BRANCH   5   6
ATOM      6  O   UNL     1      -5.894  13.659 -24.702  1.00  0.00    -0.265 OA
BRANCH   6   7
ATOM      7  S   UNL     1      -5.245  12.367 -25.493  1.00  0.00     0.348 S 
ATOM      8  O   UNL     1      -4.161  12.946 -26.274  1.00  0.00    -0.192 OA
ATOM      9  O   UNL     1      -6.365  11.732 -26.170  1.00  0.00    -0.192 OA
BRANCH   7  10
ATOM     10  C   UNL     1      -4.645  11.494 -24.003  1.00  0.00     0.459 C 
ATOM     11  F   UNL     1      -4.200  12.410 -23.065  1.00  0.00    -0.171 F 
ATOM     12  F   UNL     1      -5.695  10.855 -23.361  1.00  0.00    -0.171 F 
BRANCH  10  13
ATOM     13  S   UNL     1      -3.357  10.334 -24.515  1.00  0.00     0.179 S 
ATOM     14  O   UNL     1      -2.148  11.145 -24.673  1.00  0.00    -0.235 OA
ATOM     15  O   UNL     1      -3.842   9.788 -25.789  1.00  0.00    -0.235 OA
ATOM     16  O   UNL     1      -3.271   9.330 -23.455  1.00  0.00    -0.742 OA
ENDBRANCH  10  13
ENDBRANCH   7  10
ENDBRANCH   6   7
ENDBRANCH   5   6
ENDBRANCH   4   5
ENDBRANCH   3   4
ENDBRANCH   2   3
ENDBRANCH   1   2
BRANCH   1  17
ATOM     17  C   UNL     1      -6.450  12.757 -19.829  1.00  0.00     0.006 C 
BRANCH  17  18
ATOM     18  C   UNL     1      -5.695  11.420 -19.909  1.00  0.00     0.084 C 
BRANCH  18  19
ATOM     19  C   UNL     1      -4.191  11.562 -19.653  1.00  0.00     0.316 C 
ATOM     20  F   UNL     1      -3.530  10.913 -20.646  1.00  0.00    -0.200 F 
ATOM     21  F   UNL     1      -3.854  12.878 -19.796  1.00  0.00    -0.200 F 
BRANCH  19  22
ATOM     22  C   UNL     1      -3.707  11.095 -18.272  1.00  0.00     0.378 C 
ATOM     23  F   UNL     1      -2.572  10.352 -18.453  1.00  0.00    -0.193 F 
ATOM     24  F   UNL     1      -4.624  10.237 -17.739  1.00  0.00    -0.193 F 
BRANCH  22  25
ATOM     25  C   UNL     1      -3.414  12.191 -17.254  1.00  0.00     0.384 C 
ATOM     26  F   UNL     1      -4.453  13.076 -17.252  1.00  0.00    -0.192 F 
ATOM     27  F   UNL     1      -2.339  12.929 -17.663  1.00  0.00    -0.192 F 
BRANCH  25  28
ATOM     28  C   UNL     1      -3.143  11.709 -15.830  1.00  0.00     0.387 C 
ATOM     29  F   UNL     1      -2.697  10.431 -15.803  1.00  0.00    -0.192 F 
ATOM     30  F   UNL     1      -4.355  11.665 -15.174  1.00  0.00    -0.192 F 
BRANCH  28  31
ATOM     31  C   UNL     1      -2.239  12.596 -14.984  1.00  0.00     0.409 C 
ATOM     32  F   UNL     1      -2.898  13.779 -14.750  1.00  0.00    -0.189 F 
ATOM     33  F   UNL     1      -1.130  12.951 -15.698  1.00  0.00    -0.189 F 
BRANCH  31  34
ATOM     34  C   UNL     1      -1.834  11.996 -13.657  1.00  0.00     0.460 C 
ATOM     35  F   UNL     1      -0.487  11.994 -13.506  1.00  0.00    -0.165 F 
ATOM     36  F   UNL     1      -2.346  12.688 -12.615  1.00  0.00    -0.165 F 
ATOM     37  F   UNL     1      -2.237  10.713 -13.537  1.00  0.00    -0.165 F 
ENDBRANCH  31  34
ENDBRANCH  28  31
ENDBRANCH  25  28
ENDBRANCH  22  25
ENDBRANCH  19  22
ENDBRANCH  18  19
ENDBRANCH  17  18
ENDBRANCH   1  17
TORSDOF 16
