REMARK SMILES O=S(=O)(O)C(F)(F)C(F)(F)C(F)(F)C(F)(F)C(F)(F)C(F)(F)C(F)(F)C(F)(F)F
REMARK SMILES IDX 14 1 15 2 16 3 17 4 18 5 19 6 20 7 21 8 22 9 23 10 24 11
REMARK SMILES IDX 25 12 26 13 27 14 28 15 29 16 11 17 12 18 13 19 8 20 9 21
REMARK SMILES IDX 10 22 5 23 6 24 7 25 2 26 1 27 3 28 4 29
REMARK H PARENT 4 30
ROOT
ATOM      1  C   UNL     1      -0.477  -0.268   0.894  1.00  0.00     0.385 C 
ATOM      2  F   UNL     1      -1.122  -1.336   1.519  1.00  0.00    -0.192 F 
ATOM      3  F   UNL     1      -0.560   0.785   1.813  1.00  0.00    -0.192 F 
ENDROOT
BRANCH   1   4
ATOM      4  C   UNL     1      -1.112   0.137  -0.371  1.00  0.00     0.385 C 
ATOM      5  F   UNL     1      -0.475   1.372  -0.726  1.00  0.00    -0.192 F 
ATOM      6  F   UNL     1      -0.881  -0.707  -1.414  1.00  0.00    -0.192 F 
BRANCH   4   7
ATOM      7  C   UNL     1      -2.557   0.572  -0.302  1.00  0.00     0.387 C 
ATOM      8  F   UNL     1      -2.660   1.760   0.394  1.00  0.00    -0.192 F 
ATOM      9  F   UNL     1      -2.905   0.893  -1.615  1.00  0.00    -0.192 F 
BRANCH   7  10
ATOM     10  C   UNL     1      -3.551  -0.394   0.193  1.00  0.00     0.409 C 
ATOM     11  F   UNL     1      -3.467  -0.710   1.542  1.00  0.00    -0.189 F 
ATOM     12  F   UNL     1      -3.660  -1.540  -0.533  1.00  0.00    -0.189 F 
BRANCH  10  13
ATOM     13  C   UNL     1      -4.927   0.320   0.122  1.00  0.00     0.460 C 
ATOM     14  F   UNL     1      -4.813   1.433   0.936  1.00  0.00    -0.165 F 
ATOM     15  F   UNL     1      -5.183   0.721  -1.153  1.00  0.00    -0.165 F 
ATOM     16  F   UNL     1      -5.865  -0.496   0.681  1.00  0.00    -0.165 F 
ENDBRANCH  10  13
ENDBRANCH   7  10
ENDBRANCH   4   7
ENDBRANCH   1   4
BRANCH   1  17
ATOM     17  C   UNL     1       0.939  -0.725   0.728  1.00  0.00     0.386 C 
ATOM     18  F   UNL     1       1.486  -1.079   1.986  1.00  0.00    -0.192 F 
ATOM     19  F   UNL     1       0.983  -1.939   0.024  1.00  0.00    -0.192 F 
BRANCH  17  20
ATOM     20  C   UNL     1       1.897   0.257   0.152  1.00  0.00     0.395 C 
ATOM     21  F   UNL     1       1.653   0.622  -1.166  1.00  0.00    -0.191 F 
ATOM     22  F   UNL     1       2.030   1.324   0.999  1.00  0.00    -0.191 F 
BRANCH  20  23
ATOM     23  C   UNL     1       3.259  -0.486   0.171  1.00  0.00     0.438 C 
ATOM     24  F   UNL     1       3.582  -0.823   1.463  1.00  0.00    -0.179 F 
ATOM     25  F   UNL     1       3.203  -1.633  -0.575  1.00  0.00    -0.179 F 
BRANCH  23  26
ATOM     26  S   UNL     1       4.508   0.574  -0.464  1.00  0.00     0.338 S 
ATOM     27  O   UNL     1       4.167   0.928  -1.882  1.00  0.00    -0.193 OA
ATOM     28  O   UNL     1       4.666   1.812   0.367  1.00  0.00    -0.193 OA
BRANCH  26  29
ATOM     29  O   UNL     1       5.977  -0.255  -0.433  1.00  0.00    -0.281 OA
ATOM     30  H   UNL     1       5.865  -1.118  -0.900  1.00  0.00     0.234 HD
ENDBRANCH  26  29
ENDBRANCH  23  26
ENDBRANCH  20  23
ENDBRANCH  17  20
ENDBRANCH   1  17
TORSDOF 9
