REMARK SMILES O=S(=O)([O-])C(F)(F)S(=O)(=O)OCCCCCCCC(F)(F)C(F)(F)C(F)(F)C(F)(F)C(F)(F)C(F)(F)F
REMARK SMILES IDX 16 1 15 2 14 3 13 4 12 5 11 6 8 7 9 8 10 9 5 10 6 11 7 12
REMARK SMILES IDX 2 13 1 14 3 15 4 16 17 17 18 18 19 19 20 20 21 21 22 22
REMARK SMILES IDX 23 23 24 24 25 25 26 26 27 27 28 28 29 29 30 30 31 31 32 32
REMARK SMILES IDX 33 33 34 34 35 35 36 36 37 37
REMARK H PARENT
ROOT
ATOM      1  C   UNL     1       0.832   1.515  -0.036  1.00  0.00     0.000 C 
ENDROOT
BRANCH   1   2
ATOM      2  C   UNL     1       1.618   2.762   0.382  1.00  0.00     0.000 C 
BRANCH   2   3
ATOM      3  C   UNL     1       2.144   2.776   1.821  1.00  0.00     0.002 C 
BRANCH   3   4
ATOM      4  C   UNL     1       2.989   1.572   2.235  1.00  0.00     0.030 C 
BRANCH   4   5
ATOM      5  C   UNL     1       4.226   1.356   1.373  1.00  0.00     0.183 C 
BRANCH   5   6
ATOM      6  O   UNL     1       4.944   0.253   1.912  1.00  0.00    -0.265 OA
BRANCH   6   7
ATOM      7  S   UNL     1       5.964  -0.585   0.925  1.00  0.00     0.348 S 
ATOM      8  O   UNL     1       6.966  -1.122   1.835  1.00  0.00    -0.192 OA
ATOM      9  O   UNL     1       6.358   0.360  -0.108  1.00  0.00    -0.192 OA
BRANCH   7  10
ATOM     10  C   UNL     1       4.750  -1.847   0.399  1.00  0.00     0.459 C 
ATOM     11  F   UNL     1       4.483  -2.713   1.446  1.00  0.00    -0.171 F 
ATOM     12  F   UNL     1       3.520  -1.258   0.143  1.00  0.00    -0.171 F 
BRANCH  10  13
ATOM     13  S   UNL     1       5.413  -2.690  -1.055  1.00  0.00     0.179 S 
ATOM     14  O   UNL     1       5.298  -1.722  -2.148  1.00  0.00    -0.235 OA
ATOM     15  O   UNL     1       4.535  -3.853  -1.235  1.00  0.00    -0.235 OA
ATOM     16  O   UNL     1       6.789  -3.055  -0.720  1.00  0.00    -0.742 OA
ENDBRANCH  10  13
ENDBRANCH   7  10
ENDBRANCH   6   7
ENDBRANCH   5   6
ENDBRANCH   4   5
ENDBRANCH   3   4
ENDBRANCH   2   3
ENDBRANCH   1   2
BRANCH   1  17
ATOM     17  C   UNL     1      -0.395   1.244   0.840  1.00  0.00     0.006 C 
BRANCH  17  18
ATOM     18  C   UNL     1      -1.238   0.062   0.334  1.00  0.00     0.084 C 
BRANCH  18  19
ATOM     19  C   UNL     1      -2.283   0.471  -0.708  1.00  0.00     0.316 C 
ATOM     20  F   UNL     1      -3.154   1.330  -0.119  1.00  0.00    -0.200 F 
ATOM     21  F   UNL     1      -1.659   1.200  -1.680  1.00  0.00    -0.200 F 
BRANCH  19  22
ATOM     22  C   UNL     1      -3.028  -0.688  -1.389  1.00  0.00     0.378 C 
ATOM     23  F   UNL     1      -2.094  -1.514  -1.954  1.00  0.00    -0.193 F 
ATOM     24  F   UNL     1      -3.763  -0.202  -2.430  1.00  0.00    -0.193 F 
BRANCH  22  25
ATOM     25  C   UNL     1      -3.938  -1.522  -0.495  1.00  0.00     0.384 C 
ATOM     26  F   UNL     1      -3.268  -1.818   0.657  1.00  0.00    -0.192 F 
ATOM     27  F   UNL     1      -4.172  -2.737  -1.074  1.00  0.00    -0.192 F 
BRANCH  25  28
ATOM     28  C   UNL     1      -5.288  -0.890  -0.160  1.00  0.00     0.387 C 
ATOM     29  F   UNL     1      -5.240   0.463  -0.205  1.00  0.00    -0.192 F 
ATOM     30  F   UNL     1      -5.561  -1.181   1.160  1.00  0.00    -0.192 F 
BRANCH  28  31
ATOM     31  C   UNL     1      -6.481  -1.398  -0.958  1.00  0.00     0.409 C 
ATOM     32  F   UNL     1      -7.615  -0.805  -0.457  1.00  0.00    -0.189 F 
ATOM     33  F   UNL     1      -6.659  -2.734  -0.735  1.00  0.00    -0.189 F 
BRANCH  31  34
ATOM     34  C   UNL     1      -6.406  -1.124  -2.443  1.00  0.00     0.460 C 
ATOM     35  F   UNL     1      -7.538  -1.518  -3.077  1.00  0.00    -0.165 F 
ATOM     36  F   UNL     1      -6.246   0.192  -2.704  1.00  0.00    -0.165 F 
ATOM     37  F   UNL     1      -5.386  -1.787  -3.030  1.00  0.00    -0.165 F 
ENDBRANCH  31  34
ENDBRANCH  28  31
ENDBRANCH  25  28
ENDBRANCH  22  25
ENDBRANCH  19  22
ENDBRANCH  18  19
ENDBRANCH  17  18
ENDBRANCH   1  17
TORSDOF 16
